/*--------------------------------*- C++ -*----------------------------------*\
  =========                 |
  \\      /  F ield         | OpenFOAM: The Open Source CFD Toolbox
   \\    /   O peration     | Website:  https://openfoam.org
    \\  /    A nd           | Version:  6
     \\/     M anipulation  |
\*---------------------------------------------------------------------------*/
FoamFile
{
    version     2.0;
    format      ascii;
    class       featureEdgeMesh;
    location    "constant/triSurface";
    object      baffle.eMesh;
}
// * * * * * * * * * * * * * * * * * * * * * * * * * * * * * * * * * * * * * //


// points:

315
(
(-0.082126 -0.600629 0.62989)
(0.387328 -0.847438 0.503471)
(-0.082126 -0.847438 0.62989)
(0.62989 -0.847438 0.082126)
(0.503471 -0.600629 -0.387328)
(0.503471 -0.847438 -0.387328)
(0.082126 -0.600629 -0.62989)
(0.082126 -0.847438 -0.62989)
(-0.387328 -0.600629 -0.503471)
(-0.387328 -0.847438 -0.503471)
(-0.62989 -0.600629 -0.082126)
(-0.503471 -0.847438 0.387328)
(-0.503471 -0.600629 0.387328)
(0.085516 -0.839472 -0.627939)
(0.483638 -0.713109 -0.398746)
(0.204901 -0.713142 -0.559211)
(0.059943 -0.603454 -0.623917)
(0.075997 -0.841143 -0.62824)
(-0.623917 -0.603399 -0.059942)
(-0.483638 -0.603329 0.398746)
(0.401059 -0.603285 0.483108)
(-0.625102 -0.603399 -0.057887)
(-0.625093 -0.84109 -0.057854)
(-0.122098 -0.840807 1.816611)
(-0.104439 -0.840807 1.811872)
(-0.057949 -0.603282 0.62521)
(-0.401014 -0.603451 -0.482939)
(-0.401004 -0.841141 -0.482905)
(-1.370782 -0.840941 1.198212)
(-1.354943 -0.840939 1.207349)
(-0.483001 -0.603329 0.401121)
(0.625148 -0.603336 0.058056)
(0.057994 -0.603454 -0.625041)
(-1.81646 -0.841144 -0.122011)
(-1.198062 -0.841296 -1.370695)
(0.079241 -0.841144 -0.633863)
(0.205845 -0.713142 -0.560849)
(0.483047 -0.603406 -0.400951)
(0.483051 -0.713109 -0.400936)
(-1.803392 -0.603679 -1.719909)
(-1.803383 -0.841369 -1.719876)
(-2.483006 -0.841141 0.075766)
(-2.483015 -0.603451 0.075732)
(0.07681 -0.840706 2.487296)
(0.076801 -0.603016 2.487263)
(1.819005 -0.840748 1.707977)
(1.818995 -0.603057 1.707944)
(-1.708062 -0.603177 1.819449)
(-1.723902 -0.603179 1.810312)
(1.724663 -0.841247 -1.811331)
(1.708823 -0.841249 -1.820468)
(-0.059577 -0.84141 -2.493623)
(-0.077236 -0.84141 -2.488885)
(2.500937 -0.84097 -0.061418)
(2.496198 -0.840973 -0.079077)
(1.809868 -0.840746 1.723817)
(1.809858 -0.603056 1.723784)
(2.496188 -0.603282 -0.079111)
(2.500927 -0.60328 -0.061452)
(1.708814 -0.603558 -1.820501)
(1.724654 -0.603556 -1.811364)
(-0.077245 -0.60372 -2.488918)
(-0.059586 -0.60372 -2.493657)
(-1.81253 -0.603677 -1.70407)
(-1.81252 -0.841367 -1.704037)
(-2.487744 -0.841144 0.058106)
(-2.487754 -0.603454 0.058072)
(-1.708053 -0.840867 1.819483)
(-1.723893 -0.840869 1.810345)
(0.059151 -0.840706 2.492035)
(0.059142 -0.603016 2.492002)
(0.387328 -0.600629 0.503471)
(-0.082126 -0.603282 0.62989)
(0.387328 -0.603282 0.503471)
(-0.060146 -0.840972 0.623971)
(-0.060112 -0.603282 0.623962)
(0.387328 -0.840973 0.503471)
(-0.06012 -0.663453 0.623965)
(-0.060145 -0.840973 0.623971)
(-0.082126 -0.840972 0.62989)
(0.62989 -0.600629 0.082126)
(0.62989 -0.603333 0.082126)
(0.398684 -0.603285 0.483746)
(0.398678 -0.66346 0.483757)
(0.398659 -0.840975 0.483789)
(0.62989 -0.841024 0.082126)
(0.398661 -0.818073 0.483785)
(0.503471 -0.603403 -0.387328)
(0.623971 -0.841026 0.060146)
(0.623962 -0.603336 0.060112)
(0.082126 -0.840672 -0.62989)
(0.082126 -0.603453 -0.62989)
(0.483639 -0.603406 -0.398745)
(0.087203 -0.838554 -0.626967)
(0.091684 -0.834718 -0.624388)
(0.059943 -0.603453 -0.623917)
(-0.387328 -0.603454 -0.503471)
(0.059908 -0.841144 -0.623908)
(0.059928 -0.702695 -0.623913)
(-0.387328 -0.841144 -0.503471)
(0.059928 -0.705456 -0.623913)
(0.059928 -0.70658 -0.623913)
(0.059925 -0.730365 -0.623912)
(0.059913 -0.834836 -0.623909)
(0.059913 -0.841143 -0.623909)
(-0.389 -0.603453 -0.500568)
(-0.62989 -0.603403 -0.082126)
(-0.398807 -0.603451 -0.483531)
(-0.398808 -0.603451 -0.483531)
(-0.398832 -0.841141 -0.483488)
(-0.62989 -0.847438 -0.082126)
(-0.62989 -0.841093 -0.082126)
(-0.39883 -0.820444 -0.483492)
(-0.503471 -0.603332 0.387328)
(-0.623917 -0.6034 -0.059943)
(-0.623908 -0.84109 -0.059909)
(-0.503471 -0.841024 0.387328)
(-0.623909 -0.819276 -0.059912)
(-0.500677 -0.603332 0.388936)
(-0.483639 -0.84102 0.398746)
(-0.483638 -0.84102 0.398746)
(-0.483639 -0.818125 0.398746)
(-0.483638 -0.60333 0.398746)
(-0.483638 -0.663505 0.398746)
(0.401068 -0.840975 0.483143)
(1.370846 -0.841175 -1.197976)
(1.355006 -0.841177 -1.207113)
(-0.05794 -0.840972 0.625244)
(1.816525 -0.840972 0.122247)
(1.811786 -0.840975 0.104589)
(-0.482992 -0.84102 0.401154)
(1.198126 -0.84082 1.370932)
(1.207263 -0.840822 1.355092)
(0.625157 -0.841026 0.05809)
(0.623971 -0.841026 0.060145)
(0.606882 -0.841036 -0.003316)
(0.608558 -0.841036 -0.003766)
(0.122161 -0.841309 -1.816374)
(0.370934 -0.834744 -0.889295)
(0.366913 -0.841171 -0.90428)
(0.404791 -0.713163 -0.763128)
(0.574693 -0.719492 -0.129969)
(0.604536 -0.834613 -0.018753)
(0.483639 -0.603405 -0.398746)
(0.483639 -0.666075 -0.398746)
(0.387131 -0.713163 -0.758389)
(0.104502 -0.841309 -1.811635)
(0.353276 -0.834744 -0.884556)
(0.349255 -0.841171 -0.899541)
(0.602847 -0.834613 -0.018299)
(0.058003 -0.841144 -0.625006)
(-1.811723 -0.841141 -0.104352)
(0.092679 -0.834718 -0.626112)
(-1.207199 -0.841294 -1.354856)
(0.501261 -0.603306 0.305563)
(0.502729 -0.840997 0.303013)
(0.629074 -0.603333 0.079095)
(0.629083 -0.841023 0.079129)
(0.623965 -0.663523 0.060121)
(0.622001 -0.841027 0.052828)
(0.570672 -0.71307 -0.144955)
(0.571229 -0.713175 -0.142879)
(0.571781 -0.71349 -0.140819)
(0.572322 -0.714012 -0.138802)
(0.572848 -0.71474 -0.136845)
(0.573352 -0.715657 -0.134967)
(0.573831 -0.716765 -0.133183)
(0.574279 -0.718048 -0.131512)
(0.500676 -0.603404 -0.388938)
(0.572364 -0.603365 -0.131496)
(0.623971 -0.819214 0.060142)
(0.57592 -0.731084 -0.118293)
(0.606322 -0.84093 -0.005397)
(0.606829 -0.841026 -0.003514)
(0.605768 -0.840616 -0.007451)
(0.606269 -0.8409 -0.005592)
(0.605225 -0.840093 -0.009467)
(0.605717 -0.840566 -0.007643)
(0.604697 -0.839366 -0.011427)
(0.605175 -0.840024 -0.009654)
(0.604192 -0.838448 -0.013306)
(0.604649 -0.839279 -0.011607)
(0.603711 -0.83734 -0.015089)
(0.604146 -0.838342 -0.013477)
(0.603261 -0.836057 -0.01676)
(0.603669 -0.837217 -0.015249)
(0.603222 -0.835919 -0.016907)
(0.318173 -0.603425 -0.494001)
(0.088804 -0.837446 -0.626046)
(0.078923 -0.603453 -0.629028)
(-0.398814 -0.66365 -0.48352)
(-0.623914 -0.663587 -0.059934)
(-0.629019 -0.841093 -0.078892)
(-0.079097 -0.603282 0.629075)
(0.141493 -0.603282 0.569672)
(-0.060142 -0.817607 0.62397)
(0.145477 -0.840972 0.568599)
(-0.079131 -0.840973 0.629084)
(0.388875 -0.603282 0.500785)
(0.38885 -0.840973 0.500828)
(0.083561 -0.840257 -0.629064)
(0.083759 -0.8402 -0.62895)
(0.085324 -0.839551 -0.628049)
(0.087019 -0.838654 -0.627074)
(0.483638 -0.703481 -0.398746)
(0.203232 -0.713237 -0.560172)
(0.45752 -0.713112 -0.413781)
(0.090139 -0.836302 -0.625278)
(0.090302 -0.836162 -0.625183)
(0.201383 -0.71353 -0.561236)
(0.203039 -0.713248 -0.560283)
(0.199569 -0.714032 -0.56228)
(0.201192 -0.713563 -0.561346)
(0.197807 -0.714738 -0.563295)
(0.199382 -0.714086 -0.562388)
(0.196113 -0.715636 -0.56427)
(0.197625 -0.714814 -0.563399)
(0.194504 -0.716725 -0.565196)
(0.195938 -0.715732 -0.564371)
(0.192994 -0.71799 -0.566065)
(0.194337 -0.71684 -0.565292)
(0.1916 -0.719418 -0.566868)
(0.192839 -0.718124 -0.566155)
(0.102497 -0.822239 -0.618163)
(0.191456 -0.719569 -0.566951)
(0.091534 -0.834875 -0.624474)
(-0.121657 -0.603454 -0.575014)
(0.059911 -0.820887 -0.623908)
(0.059931 -0.703111 -0.623914)
(0.059932 -0.703714 -0.623914)
(-0.117682 -0.841144 -0.576084)
(0.059932 -0.7045 -0.623914)
(0.081849 -0.840723 -0.629816)
(0.081452 -0.840766 -0.629709)
(0.059931 -0.70786 -0.623914)
(0.059928 -0.70928 -0.623913)
(0.078937 -0.841038 -0.629032)
(0.078146 -0.841066 -0.628819)
(-0.494097 -0.603431 -0.318008)
(-0.389025 -0.841143 -0.500525)
(-0.492634 -0.841122 -0.320549)
(-0.629029 -0.603403 -0.078926)
(-0.572324 -0.60337 0.131645)
(-0.572312 -0.841061 0.131691)
(-0.305398 -0.603308 0.501356)
(-0.500678 -0.841022 0.388936)
(-0.302914 -0.840999 0.502786)
(1.370837 -0.603484 -1.198009)
(1.354997 -0.603486 -1.207146)
(-0.122107 -0.603117 1.816578)
(-0.104447 -0.603117 1.811839)
(1.816515 -0.603282 0.122214)
(1.811776 -0.603284 0.104555)
(-1.370791 -0.603251 1.198179)
(-1.354951 -0.603249 1.207316)
(1.198116 -0.60313 1.370899)
(1.207253 -0.603131 1.355059)
(0.367471 -0.841065 -0.902203)
(0.368023 -0.84075 -0.900144)
(0.368565 -0.840227 -0.898127)
(0.36909 -0.839499 -0.896171)
(0.369594 -0.838581 -0.894292)
(0.370073 -0.837473 -0.892509)
(0.370521 -0.836189 -0.890838)
(0.40077 -0.71959 -0.778112)
(0.401183 -0.718146 -0.776572)
(0.401631 -0.716862 -0.774901)
(0.402109 -0.715754 -0.773118)
(0.402614 -0.714835 -0.77124)
(0.403139 -0.714107 -0.76928)
(0.403681 -0.713584 -0.767263)
(0.122153 -0.603619 -1.816407)
(0.404233 -0.713269 -0.765208)
(0.60495 -0.836057 -0.017213)
(0.605399 -0.83734 -0.015542)
(0.605877 -0.838448 -0.013759)
(0.606381 -0.839366 -0.011879)
(0.606908 -0.840093 -0.009919)
(0.607448 -0.840616 -0.007902)
(0.608 -0.84093 -0.005847)
(0.104493 -0.603619 -1.811669)
(0.386573 -0.713269 -0.760469)
(0.386021 -0.713584 -0.762524)
(0.385481 -0.714107 -0.764541)
(0.384955 -0.714835 -0.766501)
(0.384451 -0.715754 -0.76838)
(0.383972 -0.716862 -0.770163)
(0.383524 -0.718146 -0.771833)
(0.383111 -0.71959 -0.773373)
(0.352861 -0.836189 -0.8861)
(0.352413 -0.837473 -0.88777)
(0.351934 -0.838581 -0.889554)
(0.35143 -0.839499 -0.891432)
(0.350905 -0.840227 -0.893389)
(0.350364 -0.84075 -0.895405)
(0.349812 -0.841065 -0.897464)
(-1.81647 -0.603454 -0.122045)
(-1.811731 -0.603451 -0.104386)
(0.192407 -0.719569 -0.5686)
(0.193788 -0.718124 -0.5678)
(0.195287 -0.71684 -0.566938)
(0.196887 -0.715732 -0.566016)
(0.198571 -0.714814 -0.565041)
(0.200328 -0.714086 -0.564028)
(0.203983 -0.713248 -0.561919)
(0.202138 -0.713563 -0.562985)
(-1.198071 -0.603606 -1.370728)
(0.081104 -0.841038 -0.632789)
(0.08295 -0.840723 -0.631724)
(0.084759 -0.8402 -0.630684)
(0.086515 -0.839472 -0.629671)
(0.0882 -0.838554 -0.628696)
(0.0898 -0.837446 -0.627773)
(0.091299 -0.836162 -0.626912)
(-1.207209 -0.603604 -1.354889)
)


// edges:

434
(
(0 72)
(71 0)
(73 71)
(78 75)
(1 76)
(79 2)
(2 1)
(80 71)
(81 80)
(84 82)
(1 3)
(3 85)
(4 80)
(3 5)
(6 4)
(7 90)
(5 7)
(91 6)
(91 92)
(187 91)
(92 187)
(188 93)
(8 6)
(91 189)
(189 95)
(96 8)
(97 99)
(95 98)
(9 99)
(7 9)
(103 101)
(102 103)
(10 8)
(106 10)
(108 190)
(190 109)
(9 110)
(110 111)
(107 108)
(105 108)
(11 110)
(2 11)
(12 10)
(113 12)
(115 114)
(114 191)
(191 115)
(192 111)
(115 192)
(11 116)
(114 117)
(0 12)
(116 119)
(118 121)
(118 122)
(120 121)
(120 119)
(126 125)
(129 128)
(132 131)
(133 134)
(136 133)
(135 136)
(139 148)
(146 137)
(142 149)
(147 138)
(104 153)
(130 120)
(81 85)
(150 97)
(109 151)
(127 74)
(94 152)
(124 84)
(83 80)
(4 5)
(87 4)
(5 87)
(99 230)
(230 97)
(101 98)
(100 101)
(122 120)
(120 123)
(122 123)
(72 193)
(194 73)
(75 74)
(195 75)
(74 195)
(75 194)
(193 75)
(76 196)
(196 74)
(77 78)
(78 74)
(197 79)
(78 197)
(73 198)
(198 82)
(199 76)
(84 199)
(83 84)
(90 200)
(200 201)
(201 202)
(93 13)
(13 203)
(203 93)
(202 13)
(204 92)
(14 204)
(205 15)
(15 206)
(206 14)
(188 207)
(207 208)
(209 210)
(210 205)
(211 212)
(212 209)
(213 214)
(214 211)
(215 216)
(216 213)
(217 218)
(218 215)
(219 220)
(220 217)
(221 222)
(222 219)
(223 224)
(224 221)
(94 223)
(208 225)
(225 94)
(95 91)
(226 96)
(16 97)
(227 16)
(97 227)
(16 226)
(98 228)
(228 229)
(95 16)
(229 231)
(98 97)
(232 90)
(233 232)
(100 98)
(231 100)
(101 234)
(234 235)
(236 233)
(237 236)
(102 101)
(235 102)
(17 237)
(104 17)
(103 104)
(96 105)
(238 106)
(107 238)
(99 109)
(239 99)
(109 239)
(111 240)
(240 109)
(112 108)
(105 107)
(106 241)
(242 113)
(18 242)
(116 243)
(243 115)
(241 114)
(117 18)
(113 118)
(244 72)
(19 244)
(245 116)
(119 245)
(79 246)
(246 120)
(121 19)
(120 116)
(123 119)
(20 247)
(124 20)
(125 124)
(248 89)
(82 20)
(21 249)
(22 21)
(23 22)
(250 122)
(24 23)
(18 21)
(25 251)
(127 25)
(128 127)
(252 82)
(75 25)
(26 253)
(27 26)
(28 27)
(254 114)
(29 28)
(107 26)
(30 255)
(130 30)
(131 130)
(256 75)
(19 30)
(137 139)
(139 257)
(257 258)
(258 259)
(259 260)
(260 261)
(261 262)
(262 263)
(263 138)
(138 264)
(264 265)
(265 266)
(266 267)
(267 268)
(268 269)
(269 270)
(31 271)
(270 272)
(272 140)
(133 31)
(141 142)
(142 273)
(273 274)
(274 275)
(275 276)
(276 277)
(277 278)
(279 136)
(278 279)
(280 143)
(145 281)
(281 282)
(282 283)
(284 285)
(285 286)
(287 288)
(286 287)
(288 147)
(147 289)
(289 290)
(290 291)
(291 292)
(292 293)
(293 294)
(295 148)
(294 295)
(148 146)
(283 284)
(89 31)
(32 296)
(150 32)
(33 150)
(297 108)
(151 33)
(16 32)
(298 299)
(299 300)
(300 301)
(301 302)
(302 303)
(34 35)
(304 36)
(38 37)
(36 38)
(305 304)
(303 305)
(37 306)
(152 298)
(35 307)
(307 308)
(308 309)
(309 310)
(310 311)
(311 312)
(312 313)
(313 152)
(153 34)
(92 37)
(36 15)
(35 17)
(306 39)
(39 40)
(40 34)
(151 41)
(41 42)
(42 297)
(24 43)
(43 44)
(44 250)
(132 45)
(45 46)
(46 256)
(254 47)
(47 48)
(48 253)
(125 49)
(49 50)
(50 126)
(137 51)
(51 52)
(52 146)
(128 53)
(53 54)
(54 129)
(78 132)
(314 95)
(115 29)
(38 14)
(84 129)
(22 115)
(27 109)
(88 126)
(119 24)
(45 55)
(55 56)
(56 46)
(131 55)
(255 56)
(57 54)
(53 58)
(58 57)
(251 58)
(252 57)
(59 50)
(49 60)
(60 59)
(247 60)
(248 59)
(61 52)
(62 61)
(51 62)
(61 280)
(62 271)
(64 40)
(63 64)
(39 63)
(64 153)
(63 314)
(41 65)
(65 66)
(66 42)
(33 65)
(296 66)
(47 67)
(67 68)
(68 48)
(29 67)
(28 68)
(43 69)
(69 70)
(70 44)
(23 69)
(249 70)
(134 159)
(159 135)
(140 160)
(160 161)
(161 162)
(162 163)
(163 164)
(164 165)
(165 166)
(166 167)
(167 141)
(143 144)
(144 145)
(87 168)
(169 87)
(170 89)
(149 171)
(171 141)
(172 173)
(174 175)
(176 177)
(178 179)
(180 181)
(182 183)
(184 185)
(149 186)
(140 145)
(183 180)
(181 178)
(179 176)
(175 172)
(134 170)
(173 135)
(185 182)
(89 169)
(168 143)
(177 174)
(186 184)
(71 75)
2{75}
(75 77)
(77 75)
(154 81)
(80 82)
(82 154)
(82 83)
(76 84)
(85 155)
(155 84)
2{84}
(84 86)
(86 84)
(86 82)
(81 156)
(157 85)
(88 157)
(156 89)
(158 88)
(89 158)
(109 110)
2{109}
(109 112)
(112 109)
(111 115)
(115 117)
2{115}
)

// * * * * * * * * * * * * * * * * * * * * * * * * * * * * * * * * * * * * * //


// ************************************************************************* //
