/*--------------------------------*- C++ -*----------------------------------*\
  =========                 |
  \\      /  F ield         | OpenFOAM: The Open Source CFD Toolbox
   \\    /   O peration     | Website:  https://openfoam.org
    \\  /    A nd           | Version:  6
     \\/     M anipulation  |
\*---------------------------------------------------------------------------*/
FoamFile
{
    version     2.0;
    format      ascii;
    class       featureEdgeMesh;
    location    "constant/triSurface";
    object      inlet.eMesh;
}
// * * * * * * * * * * * * * * * * * * * * * * * * * * * * * * * * * * * * * //


// points:

106
(
(-1.016972 1.321624 -2.298111)
(-0.964595 1.321624 -2.322758)
(-0.926703 1.321624 -2.340589)
(-0.66587 1.321624 -2.425338)
(-0.626042 1.321624 -2.438279)
(-0.356643 1.321624 -2.489669)
(-0.315508 1.321624 -2.497516)
(-0.041793 1.321624 -2.514737)
(2e-06 1.321624 -2.517366)
(0.273717 1.321624 -2.500145)
(0.315512 1.321624 -2.497516)
(0.58491 1.321624 -2.446125)
(0.626046 1.321624 -2.438278)
(0.886879 1.321624 -2.353528)
(0.926707 1.321624 -2.340587)
(1.174861 1.321625 -2.223814)
(1.212753 1.321624 -2.205984)
(1.444315 1.321625 -2.05903)
(1.479673 1.321624 -2.036591)
(1.690991 1.321625 -1.861773)
(1.723258 1.321624 -1.835079)
(1.910999 1.321625 -1.635155)
(1.939666 1.321624 -1.604627)
(2.100869 1.321625 -1.382749)
(2.125484 1.321624 -1.34887)
(2.257608 1.321625 -1.108537)
(2.277782 1.321624 -1.07184)
(2.314508 1.321624 -0.979081)
(-0.866122 1.321624 2.360272)
(-0.886877 1.321624 2.353529)
(-0.926704 1.321624 2.340588)
(-1.174859 1.321624 2.223815)
(-1.212751 1.321624 2.205985)
(-1.444312 1.321624 2.059031)
(-1.479671 1.321624 2.036592)
(-1.646387 1.321624 1.898673)
(-1.87137 1.321624 -1.677356)
(-1.751922 1.321624 -1.804555)
(-1.723255 1.321624 -1.835082)
(-1.511937 1.321624 -2.009899)
(-1.47967 1.321624 -2.036593)
(-1.248107 1.321624 -2.183547)
(-1.212749 1.321624 -2.205986)
(2.378742 1.321624 -0.816842)
(2.394159 1.321624 -0.777906)
(2.462363 1.321624 -0.512266)
(2.472778 1.321624 -0.471704)
(2.507151 1.321624 -0.19961)
(2.512399 1.321624 -0.158063)
(2.512399 1.321624 -0.094364)
(2.512399 1.321624 0.116193)
(2.512399 1.321624 0.15807)
(2.478025 1.321624 0.430164)
(2.472776 1.321624 0.471711)
(2.404571 1.321624 0.737351)
(2.394156 1.321624 0.777913)
(2.293195 1.321624 1.03291)
(2.277779 1.321624 1.071846)
(2.145655 1.321624 1.312178)
(2.12548 1.321624 1.348876)
(1.964276 1.321624 1.570753)
(1.939661 1.321624 1.604633)
(1.75192 1.321624 1.804557)
(1.723253 1.321624 1.835084)
(1.511934 1.321625 2.009901)
(1.479667 1.321624 2.036595)
(1.248105 1.321625 2.183548)
(1.212746 1.321624 2.205987)
(0.964592 1.321624 2.322759)
(0.9267 1.321624 2.34059)
(0.665867 1.321624 2.425339)
(0.626039 1.321624 2.43828)
(0.35664 1.321624 2.48967)
(0.315505 1.321624 2.497517)
(0.041794 1.321624 2.514737)
(0 1.321624 2.517366)
(-0.273715 1.321624 2.500146)
(-0.31551 1.321624 2.497516)
(-0.584908 1.321624 2.446126)
(-0.626044 1.321624 2.438278)
(-1.690989 1.321624 1.861775)
(-1.723256 1.321624 1.835081)
(-1.910997 1.321624 1.635157)
(-1.939664 1.321624 1.60463)
(-2.100868 1.321624 1.382752)
(-2.125483 1.321624 1.348872)
(-2.257607 1.321624 1.10854)
(-2.277781 1.321624 1.071842)
(-2.378742 1.321624 0.816845)
(-2.394158 1.321624 0.777909)
(-2.462362 1.321624 0.512269)
(-2.472777 1.321624 0.471707)
(-2.50715 1.321624 0.199613)
(-2.512399 1.321624 0.158066)
(-2.512399 1.321624 -0.11619)
(-2.512399 1.321624 -0.158068)
(-2.478025 1.321624 -0.430161)
(-2.472777 1.321624 -0.471708)
(-2.404572 1.321624 -0.737348)
(-2.394157 1.321624 -0.77791)
(-2.293197 1.321624 -1.032907)
(-2.277781 1.321624 -1.071843)
(-2.145657 1.321624 -1.312176)
(-2.125482 1.321624 -1.348873)
(-1.964278 1.321624 -1.570751)
(-1.939664 1.321624 -1.604631)
)


// edges:

106
(
(0 1)
(1 2)
(2 3)
(3 4)
(4 5)
(5 6)
(6 7)
(7 8)
(8 9)
(9 10)
(10 11)
(11 12)
(12 13)
(13 14)
(14 15)
(15 16)
(16 17)
(17 18)
(18 19)
(19 20)
(20 21)
(21 22)
(22 23)
(23 24)
(24 25)
(25 26)
(26 27)
(28 29)
(29 30)
(30 31)
(31 32)
(32 33)
(33 34)
(34 35)
(36 37)
(37 38)
(38 39)
(39 40)
(40 41)
(41 42)
(42 0)
(27 43)
(43 44)
(44 45)
(45 46)
(46 47)
(47 48)
(48 49)
(49 50)
(50 51)
(51 52)
(52 53)
(53 54)
(54 55)
(55 56)
(56 57)
(57 58)
(58 59)
(59 60)
(60 61)
(61 62)
(62 63)
(63 64)
(64 65)
(65 66)
(66 67)
(67 68)
(68 69)
(69 70)
(70 71)
(71 72)
(72 73)
(73 74)
(74 75)
(75 76)
(76 77)
(77 78)
(78 79)
(79 28)
(35 80)
(80 81)
(81 82)
(82 83)
(83 84)
(84 85)
(85 86)
(86 87)
(87 88)
(88 89)
(89 90)
(90 91)
(91 92)
(92 93)
(93 94)
(94 95)
(95 96)
(96 97)
(97 98)
(98 99)
(99 100)
(100 101)
(101 102)
(102 103)
(103 104)
(104 105)
(105 36)
)

// * * * * * * * * * * * * * * * * * * * * * * * * * * * * * * * * * * * * * //


// ************************************************************************* //
