/*--------------------------------*- C++ -*----------------------------------*\
  =========                 |
  \\      /  F ield         | OpenFOAM: The Open Source CFD Toolbox
   \\    /   O peration     | Website:  https://openfoam.org
    \\  /    A nd           | Version:  6
     \\/     M anipulation  |
\*---------------------------------------------------------------------------*/
FoamFile
{
    version     2.0;
    format      ascii;
    class       featureEdgeMesh;
    location    "constant/triSurface";
    object      motor.eMesh;
}
// * * * * * * * * * * * * * * * * * * * * * * * * * * * * * * * * * * * * * //


// points:

52
(
(0.460121 -1.646846 -0.149503)
(-0.331184 -1.646846 -0.352674)
(-0.474611 -1.646846 -0.094406)
(0.447074 -1.646846 -0.185184)
(-0.447074 -1.646846 -0.185184)
(0.460121 -1.646846 0.149502)
(0.482845 -1.646846 -0.030378)
(0.482845 -1.646846 -0.010805)
(-0.482845 -1.646846 0.010806)
(0.447074 -1.646846 0.185184)
(0.482958 -1.646846 -0.008629)
(-0.482958 -1.646846 0.008629)
(0.402356 -1.646846 -0.268846)
(0.342175 -1.646846 -0.342175)
(0.268846 -1.646846 -0.402356)
(-0.402356 -1.646846 -0.268845)
(0.185184 -1.646846 -0.447074)
(-0.342176 -1.646846 -0.342175)
(0.094406 -1.646846 -0.474611)
(-0.268846 -1.646846 -0.402356)
(-0 -1.646846 -0.483909)
(-0.185184 -1.646846 -0.447074)
(-0.094406 -1.646846 -0.474611)
(0.342175 -1.646846 0.342175)
(0.402356 -1.646846 0.268846)
(0.268846 -1.646846 0.402356)
(0.185184 -1.646846 0.447074)
(-0.474611 -1.646846 0.094407)
(0.094406 -1.646846 0.474611)
(-0.447074 -1.646846 0.185185)
(0 -1.646846 0.483909)
(-0.402355 -1.646846 0.268846)
(-0.094405 -1.646846 0.474611)
(-0.342175 -1.646846 0.342176)
(-0.185183 -1.646846 0.447074)
(-0.268845 -1.646846 0.402356)
(0.482981 -1.646846 -0.005533)
(0.482902 -1.646846 -0.001594)
(-0.482981 -1.646846 0.005533)
(-0.482902 -1.646846 0.001595)
(0.474611 -1.646846 -0.094406)
(-0.460121 -1.646846 -0.149502)
(-0.481541 -1.646846 -0.040702)
(0.481541 -1.646846 0.040702)
(0.474611 -1.646846 0.094406)
(0.120316 -1.646846 0.4686)
(0.482827 -1.646846 -0.004236)
(0.48278 -1.646846 0.002426)
(0.482702 -1.646846 0.009017)
(-0.482827 -1.646846 0.004236)
(-0.48278 -1.646846 -0.002426)
(-0.482702 -1.646846 -0.009016)
)


// edges:

64
(
(4 2)
(12 13)
(13 14)
(15 4)
(14 16)
(17 15)
(16 18)
(19 17)
(18 20)
(21 19)
(20 22)
(22 21)
(3 12)
(23 24)
(25 23)
(26 25)
(8 27)
(28 26)
(27 29)
(30 28)
(29 31)
(32 30)
(31 33)
(34 32)
(33 35)
(35 34)
(24 9)
(10 36)
(36 37)
(11 38)
(38 39)
(40 6)
(6 0)
(41 42)
(42 2)
(41 2)
(40 0)
(3 0)
(1 2)
(1 4)
(0 1)
(3 1)
(3 4)
(5 43)
(43 44)
(5 44)
(45 5)
(5 9)
(45 9)
(51 39)
(48 37)
(46 7)
(47 46)
(48 47)
(49 8)
(50 49)
(51 50)
(6 7)
(7 6)
2{7}
(8 9)
2{8}
(7 10)
(8 11)
)

// * * * * * * * * * * * * * * * * * * * * * * * * * * * * * * * * * * * * * //


// ************************************************************************* //
