/*--------------------------------*- C++ -*----------------------------------*\
  =========                 |
  \\      /  F ield         | OpenFOAM: The Open Source CFD Toolbox
   \\    /   O peration     | Website:  https://openfoam.org
    \\  /    A nd           | Version:  6
     \\/     M anipulation  |
\*---------------------------------------------------------------------------*/
FoamFile
{
    version     2.0;
    format      ascii;
    class       featureEdgeMesh;
    location    "constant/triSurface";
    object      outlet.eMesh;
}
// * * * * * * * * * * * * * * * * * * * * * * * * * * * * * * * * * * * * * //


// points:

106
(
(-1.010864 -3.704704 -2.284307)
(-0.958801 -3.704704 -2.308806)
(-0.921136 -3.704704 -2.32653)
(-0.66187 -3.704705 -2.41077)
(-0.622281 -3.704704 -2.423633)
(-0.354501 -3.704705 -2.474715)
(-0.313613 -3.704704 -2.482515)
(-0.041542 -3.704705 -2.499632)
(2e-06 -3.704704 -2.502246)
(0.272073 -3.704705 -2.485128)
(0.313617 -3.704704 -2.482514)
(0.581397 -3.704705 -2.431432)
(0.622285 -3.704704 -2.423632)
(0.881552 -3.704705 -2.339391)
(0.92114 -3.704704 -2.326528)
(1.167804 -3.704703 -2.210457)
(1.205468 -3.704705 -2.192733)
(1.43564 -3.704703 -2.046662)
(1.470785 -3.704705 -2.024358)
(1.680834 -3.704703 -1.85059)
(1.712907 -3.704705 -1.824057)
(1.899521 -3.704703 -1.625333)
(1.928015 -3.704705 -1.594989)
(2.08825 -3.704703 -1.374444)
(2.112718 -3.704705 -1.340768)
(2.244048 -3.704703 -1.101879)
(2.264101 -3.704705 -1.065402)
(2.300606 -3.704704 -0.9732)
(-0.86092 -3.704705 2.346095)
(-0.88155 -3.704705 2.339392)
(-0.921138 -3.704705 2.326529)
(-1.167802 -3.704705 2.210458)
(-1.205466 -3.704705 2.192734)
(-1.435637 -3.704705 2.046664)
(-1.470783 -3.704705 2.024359)
(-1.636498 -3.704705 1.887268)
(-1.86013 -3.704704 -1.667281)
(-1.741399 -3.704704 -1.793715)
(-1.712904 -3.704704 -1.824059)
(-1.502855 -3.704704 -1.997827)
(-1.470782 -3.704704 -2.02436)
(-1.240611 -3.704704 -2.170431)
(-1.205465 -3.704704 -2.192735)
(2.364455 -3.704705 -0.811936)
(2.379778 -3.704705 -0.773233)
(2.447573 -3.704705 -0.509189)
(2.457925 -3.704705 -0.468871)
(2.492091 -3.704705 -0.198411)
(2.497308 -3.704705 -0.157114)
(2.497308 -3.704704 -0.093797)
(2.497308 -3.704704 0.115495)
(2.497308 -3.704705 0.157121)
(2.46314 -3.704704 0.42758)
(2.457923 -3.704705 0.468878)
(2.390128 -3.704704 0.732922)
(2.379776 -3.704705 0.77324)
(2.279421 -3.704704 1.026705)
(2.264098 -3.704705 1.065408)
(2.132767 -3.704704 1.304297)
(2.112713 -3.704705 1.340774)
(1.952478 -3.704704 1.561319)
(1.928011 -3.704705 1.594995)
(1.741397 -3.704704 1.793718)
(1.712902 -3.704705 1.824062)
(1.502853 -3.704704 1.997829)
(1.470779 -3.704705 2.024362)
(1.240608 -3.704704 2.170433)
(1.205462 -3.704705 2.192737)
(0.958798 -3.704704 2.308807)
(0.921134 -3.704705 2.32653)
(0.661867 -3.704705 2.410771)
(0.622278 -3.704705 2.423634)
(0.354498 -3.704705 2.474715)
(0.313609 -3.704705 2.482515)
(0.041543 -3.704704 2.499632)
(0 -3.704705 2.502245)
(-0.272071 -3.704704 2.485128)
(-0.313615 -3.704705 2.482515)
(-0.581395 -3.704704 2.431433)
(-0.622283 -3.704705 2.423633)
(-1.680832 -3.704705 1.850592)
(-1.712905 -3.704705 1.824059)
(-1.899518 -3.704705 1.625335)
(-1.928013 -3.704705 1.594991)
(-2.088249 -3.704705 1.374446)
(-2.112716 -3.704705 1.34077)
(-2.244046 -3.704705 1.101881)
(-2.264099 -3.704705 1.065404)
(-2.364454 -3.704705 0.811939)
(-2.379777 -3.704704 0.773236)
(-2.447572 -3.704705 0.509192)
(-2.457924 -3.704704 0.468874)
(-2.492091 -3.704705 0.198414)
(-2.497308 -3.704704 0.157117)
(-2.497308 -3.704705 -0.115492)
(-2.497308 -3.704704 -0.157118)
(-2.463141 -3.704705 -0.427577)
(-2.457924 -3.704704 -0.468875)
(-2.390129 -3.704705 -0.732919)
(-2.379776 -3.704704 -0.773237)
(-2.279423 -3.704705 -1.026703)
(-2.264099 -3.704705 -1.065405)
(-2.132769 -3.704705 -1.304294)
(-2.112715 -3.704705 -1.340771)
(-1.95248 -3.704705 -1.561316)
(-1.928013 -3.704704 -1.594992)
)


// edges:

106
(
(0 1)
(1 2)
(2 3)
(3 4)
(4 5)
(5 6)
(6 7)
(7 8)
(8 9)
(9 10)
(10 11)
(11 12)
(12 13)
(13 14)
(14 15)
(15 16)
(16 17)
(17 18)
(18 19)
(19 20)
(20 21)
(21 22)
(22 23)
(23 24)
(24 25)
(25 26)
(26 27)
(28 29)
(29 30)
(30 31)
(31 32)
(32 33)
(33 34)
(34 35)
(36 37)
(37 38)
(38 39)
(39 40)
(40 41)
(41 42)
(42 0)
(27 43)
(43 44)
(44 45)
(45 46)
(46 47)
(47 48)
(48 49)
(49 50)
(50 51)
(51 52)
(52 53)
(53 54)
(54 55)
(55 56)
(56 57)
(57 58)
(58 59)
(59 60)
(60 61)
(61 62)
(62 63)
(63 64)
(64 65)
(65 66)
(66 67)
(67 68)
(68 69)
(69 70)
(70 71)
(71 72)
(72 73)
(73 74)
(74 75)
(75 76)
(76 77)
(77 78)
(78 79)
(79 28)
(35 80)
(80 81)
(81 82)
(82 83)
(83 84)
(84 85)
(85 86)
(86 87)
(87 88)
(88 89)
(89 90)
(90 91)
(91 92)
(92 93)
(93 94)
(94 95)
(95 96)
(96 97)
(97 98)
(98 99)
(99 100)
(100 101)
(101 102)
(102 103)
(103 104)
(104 105)
(105 36)
)

// * * * * * * * * * * * * * * * * * * * * * * * * * * * * * * * * * * * * * //


// ************************************************************************* //
