/*--------------------------------*- C++ -*----------------------------------*\
  =========                 |
  \\      /  F ield         | OpenFOAM: The Open Source CFD Toolbox
   \\    /   O peration     | Website:  https://openfoam.org
    \\  /    A nd           | Version:  6
     \\/     M anipulation  |
\*---------------------------------------------------------------------------*/
FoamFile
{
    version     2.0;
    format      ascii;
    class       featureEdgeMesh;
    location    "constant/triSurface";
    object      s_shaft.eMesh;
}
// * * * * * * * * * * * * * * * * * * * * * * * * * * * * * * * * * * * * * //


// points:

100
(
(-0.010046 -0.380631 0.079369)
(0 -0.380631 0.08)
(0.010046 -0.380631 0.079369)
(0.019935 -0.380631 0.077487)
(0.029508 -0.380631 0.074382)
(0.038616 -0.380631 0.070105)
(0.047116 -0.380631 0.064721)
(0.054872 -0.380631 0.058317)
(0.061763 -0.380631 0.050994)
(0.06768 -0.380631 0.042866)
(0.072529 -0.380631 0.034062)
(0.076235 -0.380631 0.024721)
(0.078738 -0.380631 0.01499)
(0.08 -0.380631 0.005023)
(0.08 -0.380631 -0.005023)
(0.078738 -0.380631 -0.014991)
(0.076235 -0.380631 -0.024721)
(0.072529 -0.380631 -0.034062)
(0.06768 -0.380631 -0.042866)
(0.061763 -0.380631 -0.050994)
(0.054872 -0.380631 -0.058318)
(0.047116 -0.380631 -0.064721)
(0.038616 -0.380631 -0.070105)
(0.029508 -0.380631 -0.074382)
(0.019934 -0.380631 -0.077487)
(0.010046 -0.380631 -0.079369)
(-0 -0.380631 -0.08)
(-0.010047 -0.380631 -0.079369)
(-0.019935 -0.380631 -0.077487)
(-0.029508 -0.380631 -0.074382)
(-0.038617 -0.380631 -0.070104)
(-0.047116 -0.380631 -0.064721)
(-0.054872 -0.380631 -0.058317)
(-0.061763 -0.380631 -0.050994)
(-0.06768 -0.380631 -0.042866)
(-0.072529 -0.380631 -0.034062)
(-0.076235 -0.380631 -0.024721)
(-0.078738 -0.380631 -0.01499)
(-0.08 -0.380631 -0.005023)
(-0.08 -0.380631 0.005023)
(-0.078738 -0.380631 0.014991)
(-0.076235 -0.380631 0.024721)
(-0.072529 -0.380631 0.034062)
(-0.06768 -0.380631 0.042866)
(-0.061763 -0.380631 0.050994)
(-0.054872 -0.380631 0.058318)
(-0.047116 -0.380631 0.064721)
(-0.038616 -0.380631 0.070105)
(-0.029508 -0.380631 0.074382)
(-0.019934 -0.380631 0.077487)
(-0.010046 -0.607135 0.079369)
(0 -0.607135 0.08)
(-0.019934 -0.607135 0.077487)
(-0.029508 -0.607135 0.074382)
(-0.038616 -0.607135 0.070105)
(-0.047116 -0.607135 0.064721)
(-0.054872 -0.607135 0.058318)
(-0.061763 -0.607135 0.050994)
(-0.06768 -0.607135 0.042866)
(-0.072529 -0.607135 0.034062)
(-0.076235 -0.607135 0.024721)
(-0.078738 -0.607135 0.014991)
(-0.08 -0.607135 0.005023)
(-0.08 -0.607135 -0.005023)
(-0.078738 -0.607135 -0.01499)
(-0.076235 -0.607135 -0.024721)
(-0.072529 -0.607135 -0.034062)
(-0.06768 -0.607135 -0.042866)
(-0.061763 -0.607135 -0.050994)
(-0.054872 -0.607135 -0.058317)
(-0.047116 -0.607135 -0.064721)
(-0.038617 -0.607135 -0.070105)
(-0.029508 -0.607135 -0.074382)
(-0.019935 -0.607135 -0.077487)
(-0.010047 -0.607135 -0.079369)
(-0 -0.607135 -0.08)
(0.010046 -0.607135 -0.079369)
(0.019934 -0.607135 -0.077487)
(0.029508 -0.607135 -0.074382)
(0.038616 -0.607135 -0.070105)
(0.047116 -0.607135 -0.064721)
(0.054872 -0.607135 -0.058318)
(0.061763 -0.607135 -0.050994)
(0.06768 -0.607135 -0.042866)
(0.072529 -0.607135 -0.034062)
(0.076235 -0.607135 -0.024721)
(0.078738 -0.607135 -0.014991)
(0.08 -0.607135 -0.005023)
(0.08 -0.607135 0.005023)
(0.078738 -0.607135 0.01499)
(0.076235 -0.607135 0.024721)
(0.072529 -0.607135 0.034062)
(0.06768 -0.607135 0.042866)
(0.061763 -0.607135 0.050994)
(0.054872 -0.607135 0.058317)
(0.047116 -0.607135 0.064721)
(0.038616 -0.607135 0.070105)
(0.029508 -0.607135 0.074382)
(0.019935 -0.607135 0.077487)
(0.010046 -0.607135 0.079369)
)


// edges:

100
(
(0 1)
(1 2)
(3 4)
(2 3)
(5 6)
(4 5)
(7 8)
(6 7)
(9 10)
(8 9)
(11 12)
(10 11)
(13 14)
(12 13)
(15 16)
(14 15)
(17 18)
(16 17)
(19 20)
(18 19)
(21 22)
(20 21)
(23 24)
(22 23)
(25 26)
(24 25)
(27 28)
(26 27)
(29 30)
(28 29)
(31 32)
(30 31)
(33 34)
(32 33)
(35 36)
(34 35)
(37 38)
(36 37)
(39 40)
(38 39)
(41 42)
(40 41)
(43 44)
(42 43)
(45 46)
(44 45)
(47 48)
(46 47)
(49 0)
(48 49)
(50 51)
(52 50)
(53 52)
(54 53)
(55 54)
(56 55)
(57 56)
(58 57)
(59 58)
(60 59)
(61 60)
(62 61)
(63 62)
(64 63)
(65 64)
(66 65)
(67 66)
(68 67)
(69 68)
(70 69)
(71 70)
(72 71)
(73 72)
(74 73)
(75 74)
(76 75)
(77 76)
(78 77)
(79 78)
(80 79)
(81 80)
(82 81)
(83 82)
(84 83)
(85 84)
(86 85)
(87 86)
(88 87)
(89 88)
(90 89)
(91 90)
(92 91)
(93 92)
(94 93)
(95 94)
(96 95)
(97 96)
(98 97)
(99 98)
(51 99)
)

// * * * * * * * * * * * * * * * * * * * * * * * * * * * * * * * * * * * * * //


// ************************************************************************* //
