/*--------------------------------*- C++ -*----------------------------------*\
  =========                 |
  \\      /  F ield         | OpenFOAM: The Open Source CFD Toolbox
   \\    /   O peration     | Website:  https://openfoam.org
    \\  /    A nd           | Version:  6
     \\/     M anipulation  |
\*---------------------------------------------------------------------------*/
FoamFile
{
    version     2.0;
    format      ascii;
    class       extendedFeatureEdgeMesh;
    location    "constant/extendedFeatureEdgeMesh";
    object      AMI.extendedFeatureEdgeMesh;
}
// * * * * * * * * * * * * * * * * * * * * * * * * * * * * * * * * * * * * * //

// points

200
(
(0 -0.385376 2)
(0.125581 -0.385376 1.996053)
(0.125581 0.114624 1.996053)
(0 0.114624 2)
(0.250666 -0.385376 1.984229)
(0.250666 0.114624 1.984229)
(0.374763 -0.385376 1.964574)
(0.374763 0.114624 1.964574)
(0.49738 -0.385376 1.937166)
(0.49738 0.114624 1.937166)
(0.618034 -0.385376 1.902113)
(0.618034 0.114624 1.902113)
(0.736249 -0.385376 1.859553)
(0.736249 0.114624 1.859553)
(0.851559 -0.385376 1.809654)
(0.851559 0.114624 1.809654)
(0.963507 -0.385376 1.752613)
(0.963507 0.114624 1.752613)
(1.071654 -0.385376 1.688656)
(1.071654 0.114624 1.688656)
(1.175571 -0.385376 1.618034)
(1.175571 0.114624 1.618034)
(1.274848 -0.385376 1.541026)
(1.274848 0.114624 1.541026)
(1.369094 -0.385376 1.457937)
(1.369094 0.114624 1.457937)
(1.457937 -0.385376 1.369094)
(1.457937 0.114624 1.369094)
(1.541027 -0.385376 1.274848)
(1.541027 0.114624 1.274848)
(1.618034 -0.385376 1.17557)
(1.618034 0.114624 1.17557)
(1.688656 -0.385376 1.071653)
(1.688656 0.114624 1.071653)
(1.752614 -0.385376 0.963507)
(1.752614 0.114624 0.963507)
(1.809654 -0.385376 0.851558)
(1.809654 0.114624 0.851558)
(1.859553 -0.385376 0.736249)
(1.859553 0.114624 0.736249)
(1.902113 -0.385376 0.618033)
(1.902113 0.114624 0.618033)
(1.937166 -0.385376 0.497379)
(1.937166 0.114624 0.497379)
(1.964575 -0.385376 0.374762)
(1.964575 0.114624 0.374762)
(1.984229 -0.385376 0.250666)
(1.984229 0.114624 0.250666)
(1.996053 -0.385376 0.12558)
(1.996053 0.114624 0.12558)
(2 -0.385376 -1e-06)
(2 0.114624 -1e-06)
(1.996053 -0.385376 -0.125582)
(1.996053 0.114624 -0.125582)
(1.984229 -0.385376 -0.250667)
(1.984229 0.114624 -0.250667)
(1.964574 -0.385376 -0.374764)
(1.964574 0.114624 -0.374764)
(1.937166 -0.385376 -0.497381)
(1.937166 0.114624 -0.497381)
(1.902113 -0.385376 -0.618035)
(1.902113 0.114624 -0.618035)
(1.859553 -0.385376 -0.73625)
(1.859553 0.114624 -0.73625)
(1.809654 -0.385376 -0.85156)
(1.809654 0.114624 -0.85156)
(1.752613 -0.385376 -0.963508)
(1.752613 0.114624 -0.963508)
(1.688655 -0.385376 -1.071655)
(1.688655 0.114624 -1.071655)
(1.618033 -0.385376 -1.175572)
(1.618033 0.114624 -1.175572)
(1.541026 -0.385376 -1.274849)
(1.541026 0.114624 -1.274849)
(1.457936 -0.385376 -1.369095)
(1.457936 0.114624 -1.369095)
(1.369093 -0.385376 -1.457938)
(1.369093 0.114624 -1.457938)
(1.274847 -0.385376 -1.541027)
(1.274847 0.114624 -1.541027)
(1.175569 -0.385376 -1.618035)
(1.175569 0.114624 -1.618035)
(1.071652 -0.385376 -1.688657)
(1.071652 0.114624 -1.688657)
(0.963506 -0.385376 -1.752614)
(0.963506 0.114624 -1.752614)
(0.851557 -0.385376 -1.809655)
(0.851557 0.114624 -1.809655)
(0.736247 -0.385376 -1.859554)
(0.736247 0.114624 -1.859554)
(0.618032 -0.385376 -1.902114)
(0.618032 0.114624 -1.902114)
(0.497378 -0.385376 -1.937167)
(0.497378 0.114624 -1.937167)
(0.374761 -0.385376 -1.964575)
(0.374761 0.114624 -1.964575)
(0.250665 -0.385376 -1.98423)
(0.250665 0.114624 -1.98423)
(0.125579 -0.385376 -1.996054)
(0.125579 0.114624 -1.996054)
(-2e-06 -0.385376 -2)
(-2e-06 0.114624 -2)
(-0.125583 -0.385376 -1.996053)
(-0.125583 0.114624 -1.996053)
(-0.250669 -0.385376 -1.984229)
(-0.250669 0.114624 -1.984229)
(-0.374765 -0.385376 -1.964574)
(-0.374765 0.114624 -1.964574)
(-0.497382 -0.385376 -1.937166)
(-0.497382 0.114624 -1.937166)
(-0.618036 -0.385376 -1.902112)
(-0.618036 0.114624 -1.902112)
(-0.736251 -0.385376 -1.859552)
(-0.736251 0.114624 -1.859552)
(-0.851561 -0.385376 -1.809653)
(-0.851561 0.114624 -1.809653)
(-0.96351 -0.385376 -1.752612)
(-0.96351 0.114624 -1.752612)
(-1.071656 -0.385376 -1.688655)
(-1.071656 0.114624 -1.688655)
(-1.175573 -0.385376 -1.618032)
(-1.175573 0.114624 -1.618032)
(-1.27485 -0.385376 -1.541025)
(-1.27485 0.114624 -1.541025)
(-1.369096 -0.385376 -1.457935)
(-1.369096 0.114624 -1.457935)
(-1.457939 -0.385376 -1.369092)
(-1.457939 0.114624 -1.369092)
(-1.541028 -0.385376 -1.274846)
(-1.541028 0.114624 -1.274846)
(-1.618035 -0.385376 -1.175569)
(-1.618035 0.114624 -1.175569)
(-1.688657 -0.385376 -1.071652)
(-1.688657 0.114624 -1.071652)
(-1.752614 -0.385376 -0.963505)
(-1.752614 0.114624 -0.963505)
(-1.809655 -0.385376 -0.851556)
(-1.809655 0.114624 -0.851556)
(-1.859554 -0.385376 -0.736247)
(-1.859554 0.114624 -0.736247)
(-1.902114 -0.385376 -0.618032)
(-1.902114 0.114624 -0.618032)
(-1.937167 -0.385376 -0.497377)
(-1.937167 0.114624 -0.497377)
(-1.964575 -0.385376 -0.37476)
(-1.964575 0.114624 -0.37476)
(-1.98423 -0.385376 -0.250664)
(-1.98423 0.114624 -0.250664)
(-1.996054 -0.385376 -0.125578)
(-1.996054 0.114624 -0.125578)
(-2 -0.385376 3e-06)
(-2 0.114624 3e-06)
(-1.996053 -0.385376 0.125584)
(-1.996053 0.114624 0.125584)
(-1.984229 -0.385376 0.250669)
(-1.984229 0.114624 0.250669)
(-1.964574 -0.385376 0.374766)
(-1.964574 0.114624 0.374766)
(-1.937165 -0.385376 0.497383)
(-1.937165 0.114624 0.497383)
(-1.902112 -0.385376 0.618037)
(-1.902112 0.114624 0.618037)
(-1.859552 -0.385376 0.736252)
(-1.859552 0.114624 0.736252)
(-1.809653 -0.385376 0.851562)
(-1.809653 0.114624 0.851562)
(-1.752612 -0.385376 0.96351)
(-1.752612 0.114624 0.96351)
(-1.688654 -0.385376 1.071656)
(-1.688654 0.114624 1.071656)
(-1.618032 -0.385376 1.175573)
(-1.618032 0.114624 1.175573)
(-1.541024 -0.385376 1.274851)
(-1.541024 0.114624 1.274851)
(-1.457935 -0.385376 1.369097)
(-1.457935 0.114624 1.369097)
(-1.369092 -0.385376 1.45794)
(-1.369092 0.114624 1.45794)
(-1.274845 -0.385376 1.541029)
(-1.274845 0.114624 1.541029)
(-1.175568 -0.385376 1.618036)
(-1.175568 0.114624 1.618036)
(-1.071651 -0.385376 1.688658)
(-1.071651 0.114624 1.688658)
(-0.963504 -0.385376 1.752615)
(-0.963504 0.114624 1.752615)
(-0.851555 -0.385376 1.809656)
(-0.851555 0.114624 1.809656)
(-0.736246 -0.385376 1.859554)
(-0.736246 0.114624 1.859554)
(-0.61803 -0.385376 1.902114)
(-0.61803 0.114624 1.902114)
(-0.497376 -0.385376 1.937167)
(-0.497376 0.114624 1.937167)
(-0.374759 -0.385376 1.964575)
(-0.374759 0.114624 1.964575)
(-0.250662 -0.385376 1.98423)
(-0.250662 0.114624 1.98423)
(-0.125577 -0.385376 1.996054)
(-0.125577 0.114624 1.996054)
)

// edges

200
(
(0 1)
(2 3)
(1 4)
(5 2)
(4 6)
(7 5)
(6 8)
(9 7)
(8 10)
(11 9)
(10 12)
(13 11)
(12 14)
(15 13)
(14 16)
(17 15)
(16 18)
(19 17)
(18 20)
(21 19)
(20 22)
(23 21)
(22 24)
(25 23)
(24 26)
(27 25)
(26 28)
(29 27)
(28 30)
(31 29)
(30 32)
(33 31)
(32 34)
(35 33)
(34 36)
(37 35)
(36 38)
(39 37)
(38 40)
(41 39)
(40 42)
(43 41)
(42 44)
(45 43)
(44 46)
(47 45)
(46 48)
(49 47)
(48 50)
(51 49)
(50 52)
(53 51)
(52 54)
(55 53)
(54 56)
(57 55)
(56 58)
(59 57)
(58 60)
(61 59)
(60 62)
(63 61)
(62 64)
(65 63)
(64 66)
(67 65)
(66 68)
(69 67)
(68 70)
(71 69)
(70 72)
(73 71)
(72 74)
(75 73)
(74 76)
(77 75)
(76 78)
(79 77)
(78 80)
(81 79)
(80 82)
(83 81)
(82 84)
(85 83)
(84 86)
(87 85)
(86 88)
(89 87)
(88 90)
(91 89)
(90 92)
(93 91)
(92 94)
(95 93)
(94 96)
(97 95)
(96 98)
(99 97)
(98 100)
(101 99)
(100 102)
(103 101)
(102 104)
(105 103)
(104 106)
(107 105)
(106 108)
(109 107)
(108 110)
(111 109)
(110 112)
(113 111)
(112 114)
(115 113)
(114 116)
(117 115)
(116 118)
(119 117)
(118 120)
(121 119)
(120 122)
(123 121)
(122 124)
(125 123)
(124 126)
(127 125)
(126 128)
(129 127)
(128 130)
(131 129)
(130 132)
(133 131)
(132 134)
(135 133)
(134 136)
(137 135)
(136 138)
(139 137)
(138 140)
(141 139)
(140 142)
(143 141)
(142 144)
(145 143)
(144 146)
(147 145)
(146 148)
(149 147)
(148 150)
(151 149)
(150 152)
(153 151)
(152 154)
(155 153)
(154 156)
(157 155)
(156 158)
(159 157)
(158 160)
(161 159)
(160 162)
(163 161)
(162 164)
(165 163)
(164 166)
(167 165)
(166 168)
(169 167)
(168 170)
(171 169)
(170 172)
(173 171)
(172 174)
(175 173)
(174 176)
(177 175)
(176 178)
(179 177)
(178 180)
(181 179)
(180 182)
(183 181)
(182 184)
(185 183)
(184 186)
(187 185)
(186 188)
(189 187)
(188 190)
(191 189)
(190 192)
(193 191)
(192 194)
(195 193)
(194 196)
(197 195)
(198 196)
(0 198)
(199 197)
(3 199)
)

// concaveStart mixedStart nonFeatureStart
0 0 0
// internalStart flatStart openStart multipleStart
200 200 200 200
// normals

300
(
(0.03141456 0 0.9995064)
(0 -1 0)
(0.03141456 0 0.9995064)
(-0 1 0)
(0.0941083 0 0.995562)
(0.0941083 0 0.995562)
(0 1 0)
(0.1564341 0 0.9876884)
(0 -1 0)
(0.1564341 0 0.9876884)
(0.2181422 0 0.975917)
(0.2181422 0 0.975917)
(0 1 0)
(0.2789895 0 0.9602941)
(0 -1 0)
(0.2789895 0 0.9602941)
(0.3387376 0 0.9408809)
(0.3387376 0 0.9408809)
(0 1 0)
(0.3971473 0 0.9177549)
(0 -1 0)
(0.3971473 0 0.9177549)
(0.4539948 0 0.8910043)
(0.4539948 0 0.8910043)
(0 1 0)
(0.5090357 0 0.8607454)
(0 -1 0)
(0.5090357 0 0.8607454)
(0.5620836 0 0.8270804)
(0.5620836 0 0.8270804)
(0 1 0)
(0.6129113 0 0.7901517)
(0 -1 0)
(0.6129113 0 0.7901517)
(0.6613116 0 0.7501113)
(0.6613116 0 0.7501113)
(0 1 0)
(0.7071068 0 0.7071068)
(0 -1 0)
(0.7071068 0 0.7071068)
(0.7501075 0 0.6613159)
(0.7501075 0 0.6613159)
(0 1 0)
(0.7901582 0 0.6129029)
(0 -1 0)
(0.7901582 0 0.6129029)
(0.8270804 0 0.5620836)
(0.8270804 0 0.5620836)
(0 1 0)
(0.8607397 0 0.5090454)
(0 -1 0)
(0.8607397 0 0.5090454)
(0.8910093 0 0.453985)
(0.8910093 0 0.453985)
(0 1 0)
(0.9177537 0 0.39715)
(0 -1 0)
(0.9177537 0 0.39715)
(0.9408818 0 0.338735)
(0.9408818 0 0.338735)
(0 1 0)
(0.9602941 0 0.2789896)
(0 -1 0)
(0.9602941 0 0.2789896)
(0.9759152 0 0.2181503)
(0.9759152 0 0.2181503)
(0 1 0)
(0.9876895 0 0.156427)
(0 -1 0)
(0.9876895 0 0.156427)
(0.995562 0 0.09410756)
(0.995562 0 0.09410756)
(0 1 0)
(0.9995064 0 0.03141456)
(0 -1 0)
(0.9995064 0 0.03141456)
(0.9995064 0 -0.03141456)
(0.9995064 0 -0.03141456)
(0 1 0)
(0.995562 0 -0.09410829)
(0 -1 0)
(0.995562 0 -0.09410829)
(0.9876884 0 -0.1564341)
(0.9876884 0 -0.1564341)
(0 1 0)
(0.975917 0 -0.2181421)
(0 -1 0)
(0.975917 0 -0.2181421)
(0.9602941 0 -0.2789895)
(0.9602941 0 -0.2789895)
(0 1 0)
(0.9408808 0 -0.3387377)
(0 -1 0)
(0.9408808 0 -0.3387377)
(0.917755 0 -0.3971471)
(0.917755 0 -0.3971471)
(0 1 0)
(0.8910043 0 -0.4539948)
(0 -1 0)
(0.8910043 0 -0.4539948)
(0.8607422 0 -0.5090412)
(0.8607422 0 -0.5090412)
(0 1 0)
(0.8270804 0 -0.5620836)
(0 -1 0)
(0.8270804 0 -0.5620836)
(0.7901554 0 -0.6129066)
(0.7901554 0 -0.6129066)
(0 1 0)
(0.7501071 0 -0.6613163)
(0 -1 0)
(0.7501071 0 -0.6613163)
(0.7071063 0 -0.7071073)
(0.7071063 0 -0.7071073)
(0 1 0)
(0.6613121 0 -0.7501109)
(0 -1 0)
(0.6613121 0 -0.7501109)
(0.6129076 0 -0.7901546)
(0.6129076 0 -0.7901546)
(0 1 0)
(0.5620843 0 -0.82708)
(0 -1 0)
(0.5620843 0 -0.82708)
(0.5090389 0 -0.8607435)
(0.5090389 0 -0.8607435)
(0 1 0)
(0.453991 0 -0.8910063)
(0 -1 0)
(0.453991 0 -0.8910063)
(0.3971479 0 -0.9177546)
(0.3971479 0 -0.9177546)
(0 1 0)
(0.3387376 0 -0.9408809)
(0 -1 0)
(0.3387376 0 -0.9408809)
(0.2789896 0 -0.9602941)
(0.2789896 0 -0.9602941)
(0 1 0)
(0.2181421 0 -0.975917)
(0 -1 0)
(0.2181421 0 -0.975917)
(0.1564354 0 -0.9876882)
(0.1564354 0 -0.9876882)
(0 1 0)
(0.09410755 0 -0.995562)
(0 -1 0)
(0.09410755 0 -0.995562)
(0.03140603 0 -0.9995067)
(0.03140603 0 -0.9995067)
(0 1 0)
(-0.03141456 -0 -0.9995064)
(0 -1 0)
(-0.03141456 0 -0.9995064)
(-0.09410755 -0 -0.995562)
(-0.09410755 0 -0.995562)
(0 1 0)
(-0.1564353 -0 -0.9876882)
(0 -1 0)
(-0.1564353 0 -0.9876882)
(-0.2181422 -0 -0.975917)
(-0.2181422 0 -0.975917)
(0 1 0)
(-0.2789966 -0 -0.9602921)
(0 -1 0)
(-0.2789966 0 -0.9602921)
(-0.3387376 -0 -0.9408809)
(-0.3387376 0 -0.9408809)
(0 1 0)
(-0.3971471 -0 -0.917755)
(0 -1 0)
(-0.3971471 0 -0.917755)
(-0.4539918 -0 -0.8910059)
(-0.4539918 0 -0.8910059)
(0 1 0)
(-0.5090391 -0 -0.8607434)
(0 -1 0)
(-0.5090391 0 -0.8607434)
(-0.5620895 -0 -0.8270764)
(-0.5620895 0 -0.8270764)
(0 1 0)
(-0.612906 -0 -0.7901558)
(0 -1 0)
(-0.612906 0 -0.7901558)
(-0.6613164 -0 -0.7501071)
(-0.6613164 0 -0.7501071)
(0 1 0)
(-0.7071068 -0 -0.7071068)
(0 -1 0)
(-0.7071068 0 -0.7071068)
(-0.7501113 -0 -0.6613116)
(-0.7501113 0 -0.6613116)
(0 1 0)
(-0.7901555 -0 -0.6129065)
(0 -1 0)
(-0.7901555 0 -0.6129065)
(-0.82708 -0 -0.5620843)
(-0.82708 0 -0.5620843)
(0 1 0)
(-0.8607455 -0 -0.5090355)
(0 -1 0)
(-0.8607455 0 -0.5090355)
(-0.8910064 -0 -0.4539908)
(-0.8910064 0 -0.4539908)
(0 1 0)
(-0.9177533 -0 -0.3971508)
(0 -1 0)
(-0.9177533 0 -0.3971508)
(-0.9408809 -0 -0.3387376)
(-0.9408809 0 -0.3387376)
(0 1 0)
(-0.9602947 -0 -0.2789875)
(0 -1 0)
(-0.9602947 0 -0.2789875)
(-0.975917 -0 -0.2181421)
(-0.975917 0 -0.2181421)
(0 1 0)
(-0.9876882 -0 -0.1564353)
(0 -1 0)
(-0.9876882 0 -0.1564353)
(-0.995562 -0 -0.09410756)
(-0.995562 0 -0.09410756)
(0 1 0)
(-0.9995067 -0 -0.03140603)
(0 -1 0)
(-0.9995067 0 -0.03140603)
(-0.9995064 0 0.03141456)
(-0.9995064 0 0.03141456)
(0 1 0)
(-0.995562 0 0.0941083)
(0 -1 0)
(-0.995562 0 0.0941083)
(-0.9876884 0 0.1564341)
(-0.9876884 0 0.1564341)
(0 1 0)
(-0.9759154 0 0.2181494)
(0 -1 0)
(-0.9759154 0 0.2181494)
(-0.9602941 0 0.2789896)
(-0.9602941 0 0.2789896)
(0 1 0)
(-0.9408809 0 0.3387376)
(0 -1 0)
(-0.9408809 0 0.3387376)
(-0.917755 0 0.3971471)
(-0.917755 0 0.3971471)
(0 1 0)
(-0.8910042 0 0.453995)
(0 -1 0)
(-0.8910042 0 0.453995)
(-0.8607397 0 0.5090454)
(-0.8607397 0 0.5090454)
(0 1 0)
(-0.8270804 0 0.5620836)
(0 -1 0)
(-0.8270804 0 0.5620836)
(-0.7901546 0 0.6129076)
(-0.7901546 0 0.6129076)
(0 1 0)
(-0.7501113 0 0.6613116)
(0 -1 0)
(-0.7501113 0 0.6613116)
(-0.7071068 0 0.7071068)
(-0.7071068 0 0.7071068)
(0 1 0)
(-0.6613078 0 0.7501146)
(0 -1 0)
(-0.6613078 0 0.7501146)
(-0.6129066 0 0.7901554)
(-0.6129066 0 0.7901554)
(0 1 0)
(-0.5620836 0 0.8270804)
(0 -1 0)
(-0.5620836 0 0.8270804)
(-0.5090357 0 0.8607454)
(-0.5090357 0 0.8607454)
(0 1 0)
(-0.4539916 0 0.891006)
(0 -1 0)
(-0.4539916 0 0.891006)
(-0.3971437 0 0.9177565)
(-0.3971437 0 0.9177565)
(0 1 0)
(-0.3387352 0 0.9408818)
(0 -1 0)
(-0.3387352 0 0.9408818)
(-0.2789895 0 0.9602941)
(-0.2789895 0 0.9602941)
(0 1 0)
(-0.2181421 0 0.975917)
(0 -1 0)
(-0.2181421 0 0.975917)
(-0.1564341 0 0.9876884)
(-0.1564341 0 0.9876884)
(0 1 0)
(0 -1 0)
(-0.0941083 0 0.995562)
(-0.03140703 0 0.9995067)
(-0.0941083 0 0.995562)
(-0.03140703 0 0.9995067)
)

// normal volume types

300
(
0
0
0
0
0
0
0
0
0
0
0
0
0
0
0
0
0
0
0
0
0
0
0
0
0
0
0
0
0
0
0
0
0
0
0
0
0
0
0
0
0
0
0
0
0
0
0
0
0
0
0
0
0
0
0
0
0
0
0
0
0
0
0
0
0
0
0
0
0
0
0
0
0
0
0
0
0
0
0
0
0
0
0
0
0
0
0
0
0
0
0
0
0
0
0
0
0
0
0
0
0
0
0
0
0
0
0
0
0
0
0
0
0
0
0
0
0
0
0
0
0
0
0
0
0
0
0
0
0
0
0
0
0
0
0
0
0
0
0
0
0
0
0
0
0
0
0
0
0
0
0
0
0
0
0
0
0
0
0
0
0
0
0
0
0
0
0
0
0
0
0
0
0
0
0
0
0
0
0
0
0
0
0
0
0
0
0
0
0
0
0
0
0
0
0
0
0
0
0
0
0
0
0
0
0
0
0
0
0
0
0
0
0
0
0
0
0
0
0
0
0
0
0
0
0
0
0
0
0
0
0
0
0
0
0
0
0
0
0
0
0
0
0
0
0
0
0
0
0
0
0
0
0
0
0
0
0
0
0
0
0
0
0
0
0
0
0
0
0
0
0
0
0
0
0
0
0
0
0
0
0
0
0
0
0
0
0
0
0
0
0
0
0
0
0
0
0
0
0
0
)

// normalDirections

200
(
2(1 -1)
2(1 -1)
2(1 -1)
2(1 -1)
2(1 -1)
2(1 -1)
2(1 -1)
2(1 -1)
2(1 -1)
2(1 -1)
2(1 -1)
2(1 -1)
2(1 -1)
2(1 -1)
2(1 -1)
2(1 -1)
2(1 -1)
2(1 -1)
2(1 -1)
2(1 -1)
2(1 -1)
2(1 -1)
2(1 -1)
2(1 -1)
2(1 -1)
2(1 -1)
2(1 -1)
2(1 -1)
2(1 -1)
2(1 -1)
2(1 -1)
2(1 -1)
2(1 -1)
2(1 -1)
2(1 -1)
2(1 -1)
2(1 -1)
2(1 -1)
2(1 -1)
2(1 -1)
2(1 -1)
2(1 -1)
2(1 -1)
2(1 -1)
2(1 -1)
2(1 -1)
2(1 -1)
2(1 -1)
2(1 -1)
2(1 -1)
2(1 -1)
2(1 -1)
2(1 -1)
2(1 -1)
2(1 -1)
2(1 -1)
2(1 -1)
2(1 -1)
2(1 -1)
2(1 -1)
2(1 -1)
2(1 -1)
2(1 -1)
2(1 -1)
2(1 -1)
2(1 -1)
2(1 -1)
2(1 -1)
2(1 -1)
2(1 -1)
2(1 -1)
2(1 -1)
2(1 -1)
2(1 -1)
2(1 -1)
2(1 -1)
2(1 -1)
2(1 -1)
2(1 -1)
2(1 -1)
2(1 -1)
2(1 -1)
2(1 -1)
2(1 -1)
2(1 -1)
2(1 -1)
2(1 -1)
2(1 -1)
2(1 -1)
2(1 -1)
2(1 -1)
2(1 -1)
2(1 -1)
2(1 -1)
2(1 -1)
2(1 -1)
2(1 -1)
2(1 -1)
2(1 -1)
2(1 -1)
2(1 -1)
2(1 -1)
2(1 -1)
2(1 -1)
2(1 -1)
2(1 -1)
2(1 -1)
2(1 -1)
2(1 -1)
2(1 -1)
2(1 -1)
2(1 -1)
2(1 -1)
2(1 -1)
2(1 -1)
2(1 -1)
2(1 -1)
2(1 -1)
2(1 -1)
2(1 -1)
2(1 -1)
2(1 -1)
2(1 -1)
2(1 -1)
2(1 -1)
2(1 -1)
2(1 -1)
2(1 -1)
2(1 -1)
2(1 -1)
2(1 -1)
2(1 -1)
2(1 -1)
2(1 -1)
2(1 -1)
2(1 -1)
2(1 -1)
2(1 -1)
2(1 -1)
2(1 -1)
2(1 -1)
2(1 -1)
2(1 -1)
2(1 -1)
2(1 -1)
2(1 -1)
2(1 -1)
2(1 -1)
2(1 -1)
2(1 -1)
2(1 -1)
2(1 -1)
2(1 -1)
2(1 -1)
2(1 -1)
2(1 -1)
2(1 -1)
2(1 -1)
2(1 -1)
2(1 -1)
2(1 -1)
2(1 -1)
2(1 -1)
2(1 -1)
2(1 -1)
2(1 -1)
2(1 -1)
2(1 -1)
2(1 -1)
2(1 -1)
2(1 -1)
2(1 -1)
2(1 -1)
2(1 -1)
2(1 -1)
2(1 -1)
2(1 -1)
2(1 -1)
2(1 -1)
2(1 -1)
2(1 -1)
2(1 -1)
2(1 -1)
2(1 -1)
2(1 -1)
2(1 -1)
2(1 -1)
2(1 -1)
2(1 -1)
2(1 -1)
2(1 -1)
2(1 -1)
2(1 -1)
2(1 -1)
2(1 -1)
2(1 -1)
2(1 -1)
2(1 -1)
2(1 -1)
2(1 -1)
)

// edgeNormals

200
(
2(0 1)
2(2 3)
2(4 1)
2(5 6)
2(7 8)
2(9 6)
2(10 8)
2(11 12)
2(13 14)
2(15 12)
2(16 14)
2(17 18)
2(19 20)
2(21 18)
2(22 20)
2(23 24)
2(25 26)
2(27 24)
2(28 26)
2(29 30)
2(31 32)
2(33 30)
2(34 32)
2(35 36)
2(37 38)
2(39 36)
2(40 38)
2(41 42)
2(43 44)
2(45 42)
2(46 44)
2(47 48)
2(49 50)
2(51 48)
2(52 50)
2(53 54)
2(55 56)
2(57 54)
2(58 56)
2(59 60)
2(61 62)
2(63 60)
2(64 62)
2(65 66)
2(67 68)
2(69 66)
2(70 68)
2(71 72)
2(73 74)
2(75 72)
2(76 74)
2(77 78)
2(79 80)
2(81 78)
2(82 80)
2(83 84)
2(85 86)
2(87 84)
2(88 86)
2(89 90)
2(91 92)
2(93 90)
2(94 92)
2(95 96)
2(97 98)
2(99 96)
2(100 98)
2(101 102)
2(103 104)
2(105 102)
2(106 104)
2(107 108)
2(109 110)
2(111 108)
2(112 110)
2(113 114)
2(115 116)
2(117 114)
2(118 116)
2(119 120)
2(121 122)
2(123 120)
2(124 122)
2(125 126)
2(127 128)
2(129 126)
2(130 128)
2(131 132)
2(133 134)
2(135 132)
2(136 134)
2(137 138)
2(139 140)
2(141 138)
2(142 140)
2(143 144)
2(145 146)
2(147 144)
2(148 146)
2(149 150)
2(151 152)
2(153 150)
2(154 152)
2(155 156)
2(157 158)
2(159 156)
2(160 158)
2(161 162)
2(163 164)
2(165 162)
2(166 164)
2(167 168)
2(169 170)
2(171 168)
2(172 170)
2(173 174)
2(175 176)
2(177 174)
2(178 176)
2(179 180)
2(181 182)
2(183 180)
2(184 182)
2(185 186)
2(187 188)
2(189 186)
2(190 188)
2(191 192)
2(193 194)
2(195 192)
2(196 194)
2(197 198)
2(199 200)
2(201 198)
2(202 200)
2(203 204)
2(205 206)
2(207 204)
2(208 206)
2(209 210)
2(211 212)
2(213 210)
2(214 212)
2(215 216)
2(217 218)
2(219 216)
2(220 218)
2(221 222)
2(223 224)
2(225 222)
2(226 224)
2(227 228)
2(229 230)
2(231 228)
2(232 230)
2(233 234)
2(235 236)
2(237 234)
2(238 236)
2(239 240)
2(241 242)
2(243 240)
2(244 242)
2(245 246)
2(247 248)
2(249 246)
2(250 248)
2(251 252)
2(253 254)
2(255 252)
2(256 254)
2(257 258)
2(259 260)
2(261 258)
2(262 260)
2(263 264)
2(265 266)
2(267 264)
2(268 266)
2(269 270)
2(271 272)
2(273 270)
2(274 272)
2(275 276)
2(277 278)
2(279 276)
2(280 278)
2(281 282)
2(283 284)
2(285 282)
2(286 284)
2(287 288)
2(289 290)
2(291 288)
2(292 290)
2(293 294)
2(295 296)
2(295 297)
2(298 294)
2(299 3)
)

// featurePointNormals
0()
// featurePointEdges
0()
// regionEdges
0()


// ************************************************************************* //
