/*--------------------------------*- C++ -*----------------------------------*\
  =========                 |
  \\      /  F ield         | OpenFOAM: The Open Source CFD Toolbox
   \\    /   O peration     | Website:  https://openfoam.org
    \\  /    A nd           | Version:  6
     \\/     M anipulation  |
\*---------------------------------------------------------------------------*/
FoamFile
{
    version     2.0;
    format      ascii;
    class       extendedFeatureEdgeMesh;
    location    "constant/extendedFeatureEdgeMesh";
    object      AMI_s.extendedFeatureEdgeMesh;
}
// * * * * * * * * * * * * * * * * * * * * * * * * * * * * * * * * * * * * * //

// points

64
(
(0 -0.563098 1.865678)
(0.363976 -0.563098 1.82983)
(0.363976 -0.13255 1.82983)
(0 -0.13255 1.865678)
(0.713964 -0.563098 1.723662)
(0.713964 -0.13255 1.723662)
(1.036515 -0.563098 1.551255)
(1.036515 -0.13255 1.551255)
(1.319234 -0.563098 1.319234)
(1.319234 -0.13255 1.319234)
(1.551255 -0.563098 1.036515)
(1.551255 -0.13255 1.036515)
(1.723662 -0.563098 0.713964)
(1.723662 -0.13255 0.713964)
(1.82983 -0.563098 0.363976)
(1.82983 -0.13255 0.363976)
(1.865678 -0.563098 0)
(1.865678 -0.13255 0)
(1.82983 -0.563098 -0.363976)
(1.82983 -0.13255 -0.363976)
(1.723662 -0.563098 -0.713964)
(1.723662 -0.13255 -0.713964)
(1.551255 -0.563098 -1.036515)
(1.551255 -0.13255 -1.036515)
(1.319234 -0.563098 -1.319234)
(1.319234 -0.13255 -1.319234)
(1.036515 -0.563098 -1.551255)
(1.036515 -0.13255 -1.551255)
(0.713964 -0.563098 -1.723662)
(0.713964 -0.13255 -1.723662)
(0.363975 -0.563098 -1.82983)
(0.363975 -0.13255 -1.82983)
(-1e-06 -0.563098 -1.865678)
(-1e-06 -0.13255 -1.865678)
(-0.363976 -0.563098 -1.829829)
(-0.363976 -0.13255 -1.829829)
(-0.713965 -0.563098 -1.723661)
(-0.713965 -0.13255 -1.723661)
(-1.036516 -0.563098 -1.551254)
(-1.036516 -0.13255 -1.551254)
(-1.319234 -0.563098 -1.319233)
(-1.319234 -0.13255 -1.319233)
(-1.551255 -0.563098 -1.036514)
(-1.551255 -0.13255 -1.036514)
(-1.723662 -0.563098 -0.713963)
(-1.723662 -0.13255 -0.713963)
(-1.82983 -0.563098 -0.363974)
(-1.82983 -0.13255 -0.363974)
(-1.865678 -0.563098 2e-06)
(-1.865678 -0.13255 2e-06)
(-1.829829 -0.563098 0.363978)
(-1.829829 -0.13255 0.363978)
(-1.723661 -0.563098 0.713966)
(-1.723661 -0.13255 0.713966)
(-1.551253 -0.563098 1.036517)
(-1.551253 -0.13255 1.036517)
(-1.319232 -0.563098 1.319235)
(-1.319232 -0.13255 1.319235)
(-1.036513 -0.563098 1.551256)
(-1.036513 -0.13255 1.551256)
(-0.713962 -0.563098 1.723663)
(-0.713962 -0.13255 1.723663)
(-0.363973 -0.563098 1.82983)
(-0.363973 -0.13255 1.82983)
)

// edges

64
(
(0 1)
(2 3)
(1 4)
(5 2)
(4 6)
(7 5)
(6 8)
(9 7)
(8 10)
(11 9)
(10 12)
(13 11)
(12 14)
(15 13)
(14 16)
(17 15)
(16 18)
(19 17)
(18 20)
(21 19)
(20 22)
(23 21)
(22 24)
(25 23)
(24 26)
(27 25)
(26 28)
(29 27)
(28 30)
(31 29)
(30 32)
(33 31)
(32 34)
(35 33)
(34 36)
(37 35)
(36 38)
(39 37)
(38 40)
(41 39)
(40 42)
(43 41)
(42 44)
(45 43)
(44 46)
(47 45)
(46 48)
(49 47)
(48 50)
(51 49)
(50 52)
(53 51)
(52 54)
(55 53)
(54 56)
(57 55)
(56 58)
(59 57)
(58 60)
(61 59)
(62 60)
(0 62)
(63 61)
(3 63)
)

// concaveStart mixedStart nonFeatureStart
0 0 0
// internalStart flatStart openStart multipleStart
64 64 64 64
// normals

96
(
(0.0980155 0 0.9951849)
(0 -1 0)
(0.0980155 0 0.9951849)
(0 1 0)
(0.2902855 0 0.9569401)
(0.2902855 0 0.9569401)
(0 1 0)
(0.4713966 0 0.8819214)
(0 -1 0)
(0.4713966 0 0.8819214)
(0.6343924 0 0.7730112)
(0.6343924 0 0.7730112)
(0 1 0)
(0.7730112 0 0.6343924)
(0 -1 0)
(0.7730112 0 0.6343924)
(0.8819214 0 0.4713966)
(0.8819214 0 0.4713966)
(0 1 0)
(0.9569401 0 0.2902855)
(0 -1 0)
(0.9569401 0 0.2902855)
(0.9951849 0 0.0980155)
(0.9951849 0 0.0980155)
(0 1 0)
(0.9951849 0 -0.0980155)
(0 -1 0)
(0.9951849 0 -0.0980155)
(0.9569401 0 -0.2902855)
(0.9569401 0 -0.2902855)
(0 1 0)
(0.8819214 0 -0.4713966)
(0 -1 0)
(0.8819214 0 -0.4713966)
(0.7730112 0 -0.6343924)
(0.7730112 0 -0.6343924)
(0 1 0)
(0.6343924 0 -0.7730112)
(0 -1 0)
(0.6343924 0 -0.7730112)
(0.4713966 0 -0.8819214)
(0.4713966 0 -0.8819214)
(0 1 0)
(0.2902848 0 -0.9569403)
(0 -1 0)
(0.2902848 0 -0.9569403)
(0.09801551 0 -0.9951849)
(0.09801551 0 -0.9951849)
(0 1 0)
(-0.09801867 -0 -0.9951846)
(0 -1 0)
(-0.09801867 0 -0.9951846)
(-0.2902848 -0 -0.9569403)
(-0.2902848 0 -0.9569403)
(0 1 0)
(-0.4713964 -0 -0.8819215)
(0 -1 0)
(-0.4713964 0 -0.8819215)
(-0.6343939 -0 -0.7730099)
(-0.6343939 0 -0.7730099)
(0 1 0)
(-0.773011 -0 -0.6343926)
(0 -1 0)
(-0.773011 0 -0.6343926)
(-0.8819214 -0 -0.4713965)
(-0.8819214 0 -0.4713965)
(0 1 0)
(-0.9569403 -0 -0.2902848)
(0 -1 0)
(-0.9569403 0 -0.2902848)
(-0.9951849 -0 -0.0980155)
(-0.9951849 0 -0.0980155)
(0 1 -0)
(-0.9951846 0 0.09801841)
(0 -1 0)
(-0.9951846 0 0.09801841)
(-0.9569401 0 0.2902855)
(-0.9569401 0 0.2902855)
(0 1 0)
(-0.8819203 0 0.4713986)
(0 -1 0)
(-0.8819203 0 0.4713986)
(-0.77301 0 0.6343939)
(-0.77301 0 0.6343939)
(0 1 0)
(-0.6343924 0 0.7730112)
(0 -1 0)
(-0.6343924 0 0.7730112)
(-0.4713966 0 0.8819213)
(-0.4713966 0 0.8819213)
(0 1 0)
(0 -1 0)
(-0.2902823 0 0.956941)
(-0.09801631 0 0.9951848)
(-0.2902823 0 0.956941)
(-0.09801631 0 0.9951848)
)

// normal volume types

96
(
0
0
0
0
0
0
0
0
0
0
0
0
0
0
0
0
0
0
0
0
0
0
0
0
0
0
0
0
0
0
0
0
0
0
0
0
0
0
0
0
0
0
0
0
0
0
0
0
0
0
0
0
0
0
0
0
0
0
0
0
0
0
0
0
0
0
0
0
0
0
0
0
0
0
0
0
0
0
0
0
0
0
0
0
0
0
0
0
0
0
0
0
0
0
0
0
)

// normalDirections

64
(
2(1 -1)
2(1 -1)
2(1 -1)
2(1 -1)
2(1 -1)
2(1 -1)
2(1 -1)
2(1 -1)
2(1 -1)
2(1 -1)
2(1 -1)
2(1 -1)
2(1 -1)
2(1 -1)
2(1 -1)
2(1 -1)
2(1 -1)
2(1 -1)
2(1 -1)
2(1 -1)
2(1 -1)
2(1 -1)
2(1 -1)
2(1 -1)
2(1 -1)
2(1 -1)
2(1 -1)
2(1 -1)
2(1 -1)
2(1 -1)
2(1 -1)
2(1 -1)
2(1 -1)
2(1 -1)
2(1 -1)
2(1 -1)
2(1 -1)
2(1 -1)
2(1 -1)
2(1 -1)
2(1 -1)
2(1 -1)
2(1 -1)
2(1 -1)
2(1 -1)
2(1 -1)
2(1 -1)
2(1 -1)
2(1 -1)
2(1 -1)
2(1 -1)
2(1 -1)
2(1 -1)
2(1 -1)
2(1 -1)
2(1 -1)
2(1 -1)
2(1 -1)
2(1 -1)
2(1 -1)
2(1 -1)
2(1 -1)
2(1 -1)
2(1 -1)
)

// edgeNormals

64
(
2(0 1)
2(2 3)
2(4 1)
2(5 6)
2(7 8)
2(9 6)
2(10 8)
2(11 12)
2(13 14)
2(15 12)
2(16 14)
2(17 18)
2(19 20)
2(21 18)
2(22 20)
2(23 24)
2(25 26)
2(27 24)
2(28 26)
2(29 30)
2(31 32)
2(33 30)
2(34 32)
2(35 36)
2(37 38)
2(39 36)
2(40 38)
2(41 42)
2(43 44)
2(45 42)
2(46 44)
2(47 48)
2(49 50)
2(51 48)
2(52 50)
2(53 54)
2(55 56)
2(57 54)
2(58 56)
2(59 60)
2(61 62)
2(63 60)
2(64 62)
2(65 66)
2(67 68)
2(69 66)
2(70 68)
2(71 72)
2(73 74)
2(75 72)
2(76 74)
2(77 78)
2(79 80)
2(81 78)
2(82 80)
2(83 84)
2(85 86)
2(87 84)
2(88 86)
2(89 90)
2(91 92)
2(91 93)
2(94 90)
2(95 3)
)

// featurePointNormals
0()
// featurePointEdges
0()
// regionEdges
0()


// ************************************************************************* //
