/*--------------------------------*- C++ -*----------------------------------*\
  =========                 |
  \\      /  F ield         | OpenFOAM: The Open Source CFD Toolbox
   \\    /   O peration     | Website:  https://openfoam.org
    \\  /    A nd           | Version:  6
     \\/     M anipulation  |
\*---------------------------------------------------------------------------*/
FoamFile
{
    version     2.0;
    format      ascii;
    class       extendedFeatureEdgeMesh;
    location    "constant/extendedFeatureEdgeMesh";
    object      baffle.extendedFeatureEdgeMesh;
}
// * * * * * * * * * * * * * * * * * * * * * * * * * * * * * * * * * * * * * //

// points

315
(
(-0.082126 -0.600629 0.62989)
(0.387328 -0.847438 0.503471)
(-0.082126 -0.847438 0.62989)
(0.62989 -0.847438 0.082126)
(0.503471 -0.600629 -0.387328)
(0.503471 -0.847438 -0.387328)
(0.082126 -0.600629 -0.62989)
(0.082126 -0.847438 -0.62989)
(-0.387328 -0.600629 -0.503471)
(-0.387328 -0.847438 -0.503471)
(-0.62989 -0.600629 -0.082126)
(-0.503471 -0.847438 0.387328)
(-0.503471 -0.600629 0.387328)
(0.085516 -0.839472 -0.627939)
(0.483638 -0.713109 -0.398746)
(0.204901 -0.713142 -0.559211)
(0.059943 -0.603454 -0.623917)
(0.075997 -0.841143 -0.62824)
(-0.623917 -0.603399 -0.059942)
(-0.483638 -0.603329 0.398746)
(0.401059 -0.603285 0.483108)
(-0.625102 -0.603399 -0.057887)
(-0.625093 -0.84109 -0.057854)
(-0.122098 -0.840807 1.816611)
(-0.104439 -0.840807 1.811872)
(-0.057949 -0.603282 0.62521)
(-0.401014 -0.603451 -0.482939)
(-0.401004 -0.841141 -0.482905)
(-1.370782 -0.840941 1.198212)
(-1.354943 -0.840939 1.207349)
(-0.483001 -0.603329 0.401121)
(0.625148 -0.603336 0.058056)
(0.057994 -0.603454 -0.625041)
(-1.81646 -0.841144 -0.122011)
(-1.198062 -0.841296 -1.370695)
(0.079241 -0.841144 -0.633863)
(0.205845 -0.713142 -0.560849)
(0.483047 -0.603406 -0.400951)
(0.483051 -0.713109 -0.400936)
(-1.803392 -0.603679 -1.719909)
(-1.803383 -0.841369 -1.719876)
(-2.483006 -0.841141 0.075766)
(-2.483015 -0.603451 0.075732)
(0.07681 -0.840706 2.487296)
(0.076801 -0.603016 2.487263)
(1.819005 -0.840748 1.707977)
(1.818995 -0.603057 1.707944)
(-1.708062 -0.603177 1.819449)
(-1.723902 -0.603179 1.810312)
(1.724663 -0.841247 -1.811331)
(1.708823 -0.841249 -1.820468)
(-0.059577 -0.84141 -2.493623)
(-0.077236 -0.84141 -2.488885)
(2.500937 -0.84097 -0.061418)
(2.496198 -0.840973 -0.079077)
(1.809868 -0.840746 1.723817)
(1.809858 -0.603056 1.723784)
(2.496188 -0.603282 -0.079111)
(2.500927 -0.60328 -0.061452)
(1.708814 -0.603558 -1.820501)
(1.724654 -0.603556 -1.811364)
(-0.077245 -0.60372 -2.488918)
(-0.059586 -0.60372 -2.493657)
(-1.81253 -0.603677 -1.70407)
(-1.81252 -0.841367 -1.704037)
(-2.487744 -0.841144 0.058106)
(-2.487754 -0.603454 0.058072)
(-1.708053 -0.840867 1.819483)
(-1.723893 -0.840869 1.810345)
(0.059151 -0.840706 2.492035)
(0.059142 -0.603016 2.492002)
(0.387328 -0.600629 0.503471)
(-0.082126 -0.603282 0.62989)
(0.387328 -0.603282 0.503471)
(-0.060146 -0.840972 0.623971)
(-0.060112 -0.603282 0.623962)
(0.387328 -0.840973 0.503471)
(-0.06012 -0.663453 0.623965)
(-0.060145 -0.840973 0.623971)
(-0.082126 -0.840972 0.62989)
(0.62989 -0.600629 0.082126)
(0.62989 -0.603333 0.082126)
(0.398684 -0.603285 0.483746)
(0.398678 -0.66346 0.483757)
(0.398659 -0.840975 0.483789)
(0.62989 -0.841024 0.082126)
(0.398661 -0.818073 0.483785)
(0.503471 -0.603403 -0.387328)
(0.623971 -0.841026 0.060146)
(0.623962 -0.603336 0.060112)
(0.082126 -0.840672 -0.62989)
(0.082126 -0.603453 -0.62989)
(0.483639 -0.603406 -0.398745)
(0.087203 -0.838554 -0.626967)
(0.091684 -0.834718 -0.624388)
(0.059943 -0.603453 -0.623917)
(-0.387328 -0.603454 -0.503471)
(0.059908 -0.841144 -0.623908)
(0.059928 -0.702695 -0.623913)
(-0.387328 -0.841144 -0.503471)
(0.059928 -0.705456 -0.623913)
(0.059928 -0.70658 -0.623913)
(0.059925 -0.730365 -0.623912)
(0.059913 -0.834836 -0.623909)
(0.059913 -0.841143 -0.623909)
(-0.389 -0.603453 -0.500568)
(-0.62989 -0.603403 -0.082126)
(-0.398807 -0.603451 -0.483531)
(-0.398808 -0.603451 -0.483531)
(-0.398832 -0.841141 -0.483488)
(-0.62989 -0.847438 -0.082126)
(-0.62989 -0.841093 -0.082126)
(-0.39883 -0.820444 -0.483492)
(-0.503471 -0.603332 0.387328)
(-0.623917 -0.6034 -0.059943)
(-0.623908 -0.84109 -0.059909)
(-0.503471 -0.841024 0.387328)
(-0.623909 -0.819276 -0.059912)
(-0.500677 -0.603332 0.388936)
(-0.483639 -0.84102 0.398746)
(-0.483638 -0.84102 0.398746)
(-0.483639 -0.818125 0.398746)
(-0.483638 -0.60333 0.398746)
(-0.483638 -0.663505 0.398746)
(0.401068 -0.840975 0.483143)
(1.370846 -0.841175 -1.197976)
(1.355006 -0.841177 -1.207113)
(-0.05794 -0.840972 0.625244)
(1.816525 -0.840972 0.122247)
(1.811786 -0.840975 0.104589)
(-0.482992 -0.84102 0.401154)
(1.198126 -0.84082 1.370932)
(1.207263 -0.840822 1.355092)
(0.625157 -0.841026 0.05809)
(0.623971 -0.841026 0.060145)
(0.606882 -0.841036 -0.003316)
(0.608558 -0.841036 -0.003766)
(0.122161 -0.841309 -1.816374)
(0.370934 -0.834744 -0.889295)
(0.366913 -0.841171 -0.90428)
(0.404791 -0.713163 -0.763128)
(0.574693 -0.719492 -0.129969)
(0.604536 -0.834613 -0.018753)
(0.483639 -0.603405 -0.398746)
(0.483639 -0.666075 -0.398746)
(0.387131 -0.713163 -0.758389)
(0.104502 -0.841309 -1.811635)
(0.353276 -0.834744 -0.884556)
(0.349255 -0.841171 -0.899541)
(0.602847 -0.834613 -0.018299)
(0.058003 -0.841144 -0.625006)
(-1.811723 -0.841141 -0.104352)
(0.092679 -0.834718 -0.626112)
(-1.207199 -0.841294 -1.354856)
(0.501261 -0.603306 0.305563)
(0.502729 -0.840997 0.303013)
(0.629074 -0.603333 0.079095)
(0.629083 -0.841023 0.079129)
(0.623965 -0.663523 0.060121)
(0.622001 -0.841027 0.052828)
(0.570672 -0.71307 -0.144955)
(0.571229 -0.713175 -0.142879)
(0.571781 -0.71349 -0.140819)
(0.572322 -0.714012 -0.138802)
(0.572848 -0.71474 -0.136845)
(0.573352 -0.715657 -0.134967)
(0.573831 -0.716765 -0.133183)
(0.574279 -0.718048 -0.131512)
(0.500676 -0.603404 -0.388938)
(0.572364 -0.603365 -0.131496)
(0.623971 -0.819214 0.060142)
(0.57592 -0.731084 -0.118293)
(0.606322 -0.84093 -0.005397)
(0.606829 -0.841026 -0.003514)
(0.605768 -0.840616 -0.007451)
(0.606269 -0.8409 -0.005592)
(0.605225 -0.840093 -0.009467)
(0.605717 -0.840566 -0.007643)
(0.604697 -0.839366 -0.011427)
(0.605175 -0.840024 -0.009654)
(0.604192 -0.838448 -0.013306)
(0.604649 -0.839279 -0.011607)
(0.603711 -0.83734 -0.015089)
(0.604146 -0.838342 -0.013477)
(0.603261 -0.836057 -0.01676)
(0.603669 -0.837217 -0.015249)
(0.603222 -0.835919 -0.016907)
(0.318173 -0.603425 -0.494001)
(0.088804 -0.837446 -0.626046)
(0.078923 -0.603453 -0.629028)
(-0.398814 -0.66365 -0.48352)
(-0.623914 -0.663587 -0.059934)
(-0.629019 -0.841093 -0.078892)
(-0.079097 -0.603282 0.629075)
(0.141493 -0.603282 0.569672)
(-0.060142 -0.817607 0.62397)
(0.145477 -0.840972 0.568599)
(-0.079131 -0.840973 0.629084)
(0.388875 -0.603282 0.500785)
(0.38885 -0.840973 0.500828)
(0.083561 -0.840257 -0.629064)
(0.083759 -0.8402 -0.62895)
(0.085324 -0.839551 -0.628049)
(0.087019 -0.838654 -0.627074)
(0.483638 -0.703481 -0.398746)
(0.203232 -0.713237 -0.560172)
(0.45752 -0.713112 -0.413781)
(0.090139 -0.836302 -0.625278)
(0.090302 -0.836162 -0.625183)
(0.201383 -0.71353 -0.561236)
(0.203039 -0.713248 -0.560283)
(0.199569 -0.714032 -0.56228)
(0.201192 -0.713563 -0.561346)
(0.197807 -0.714738 -0.563295)
(0.199382 -0.714086 -0.562388)
(0.196113 -0.715636 -0.56427)
(0.197625 -0.714814 -0.563399)
(0.194504 -0.716725 -0.565196)
(0.195938 -0.715732 -0.564371)
(0.192994 -0.71799 -0.566065)
(0.194337 -0.71684 -0.565292)
(0.1916 -0.719418 -0.566868)
(0.192839 -0.718124 -0.566155)
(0.102497 -0.822239 -0.618163)
(0.191456 -0.719569 -0.566951)
(0.091534 -0.834875 -0.624474)
(-0.121657 -0.603454 -0.575014)
(0.059911 -0.820887 -0.623908)
(0.059931 -0.703111 -0.623914)
(0.059932 -0.703714 -0.623914)
(-0.117682 -0.841144 -0.576084)
(0.059932 -0.7045 -0.623914)
(0.081849 -0.840723 -0.629816)
(0.081452 -0.840766 -0.629709)
(0.059931 -0.70786 -0.623914)
(0.059928 -0.70928 -0.623913)
(0.078937 -0.841038 -0.629032)
(0.078146 -0.841066 -0.628819)
(-0.494097 -0.603431 -0.318008)
(-0.389025 -0.841143 -0.500525)
(-0.492634 -0.841122 -0.320549)
(-0.629029 -0.603403 -0.078926)
(-0.572324 -0.60337 0.131645)
(-0.572312 -0.841061 0.131691)
(-0.305398 -0.603308 0.501356)
(-0.500678 -0.841022 0.388936)
(-0.302914 -0.840999 0.502786)
(1.370837 -0.603484 -1.198009)
(1.354997 -0.603486 -1.207146)
(-0.122107 -0.603117 1.816578)
(-0.104447 -0.603117 1.811839)
(1.816515 -0.603282 0.122214)
(1.811776 -0.603284 0.104555)
(-1.370791 -0.603251 1.198179)
(-1.354951 -0.603249 1.207316)
(1.198116 -0.60313 1.370899)
(1.207253 -0.603131 1.355059)
(0.367471 -0.841065 -0.902203)
(0.368023 -0.84075 -0.900144)
(0.368565 -0.840227 -0.898127)
(0.36909 -0.839499 -0.896171)
(0.369594 -0.838581 -0.894292)
(0.370073 -0.837473 -0.892509)
(0.370521 -0.836189 -0.890838)
(0.40077 -0.71959 -0.778112)
(0.401183 -0.718146 -0.776572)
(0.401631 -0.716862 -0.774901)
(0.402109 -0.715754 -0.773118)
(0.402614 -0.714835 -0.77124)
(0.403139 -0.714107 -0.76928)
(0.403681 -0.713584 -0.767263)
(0.122153 -0.603619 -1.816407)
(0.404233 -0.713269 -0.765208)
(0.60495 -0.836057 -0.017213)
(0.605399 -0.83734 -0.015542)
(0.605877 -0.838448 -0.013759)
(0.606381 -0.839366 -0.011879)
(0.606908 -0.840093 -0.009919)
(0.607448 -0.840616 -0.007902)
(0.608 -0.84093 -0.005847)
(0.104493 -0.603619 -1.811669)
(0.386573 -0.713269 -0.760469)
(0.386021 -0.713584 -0.762524)
(0.385481 -0.714107 -0.764541)
(0.384955 -0.714835 -0.766501)
(0.384451 -0.715754 -0.76838)
(0.383972 -0.716862 -0.770163)
(0.383524 -0.718146 -0.771833)
(0.383111 -0.71959 -0.773373)
(0.352861 -0.836189 -0.8861)
(0.352413 -0.837473 -0.88777)
(0.351934 -0.838581 -0.889554)
(0.35143 -0.839499 -0.891432)
(0.350905 -0.840227 -0.893389)
(0.350364 -0.84075 -0.895405)
(0.349812 -0.841065 -0.897464)
(-1.81647 -0.603454 -0.122045)
(-1.811731 -0.603451 -0.104386)
(0.192407 -0.719569 -0.5686)
(0.193788 -0.718124 -0.5678)
(0.195287 -0.71684 -0.566938)
(0.196887 -0.715732 -0.566016)
(0.198571 -0.714814 -0.565041)
(0.200328 -0.714086 -0.564028)
(0.203983 -0.713248 -0.561919)
(0.202138 -0.713563 -0.562985)
(-1.198071 -0.603606 -1.370728)
(0.081104 -0.841038 -0.632789)
(0.08295 -0.840723 -0.631724)
(0.084759 -0.8402 -0.630684)
(0.086515 -0.839472 -0.629671)
(0.0882 -0.838554 -0.628696)
(0.0898 -0.837446 -0.627773)
(0.091299 -0.836162 -0.626912)
(-1.207209 -0.603604 -1.354889)
)

// edges

434
(
(0 72)
(71 0)
(73 71)
(78 75)
(1 76)
(79 2)
(2 1)
(80 71)
(81 80)
(84 82)
(1 3)
(3 85)
(4 80)
(3 5)
(6 4)
(7 90)
(5 7)
(91 6)
(91 92)
(187 91)
(92 187)
(188 93)
(8 6)
(91 189)
(189 95)
(96 8)
(97 99)
(95 98)
(9 99)
(7 9)
(103 101)
(102 103)
(10 8)
(106 10)
(108 190)
(190 109)
(9 110)
(110 111)
(107 108)
(105 108)
(11 110)
(2 11)
(12 10)
(113 12)
(115 114)
(114 191)
(191 115)
(192 111)
(115 192)
(11 116)
(114 117)
(0 12)
(116 119)
(118 121)
(118 122)
(120 121)
(120 119)
(126 125)
(129 128)
(132 131)
(133 134)
(136 133)
(135 136)
(139 148)
(146 137)
(142 149)
(147 138)
(104 153)
(130 120)
(81 85)
(150 97)
(109 151)
(127 74)
(94 152)
(124 84)
(83 80)
(4 5)
(87 4)
(5 87)
(99 230)
(230 97)
(101 98)
(100 101)
(122 120)
(120 123)
(122 123)
(72 193)
(194 73)
(75 74)
(195 75)
(74 195)
(75 194)
(193 75)
(76 196)
(196 74)
(77 78)
(78 74)
(197 79)
(78 197)
(73 198)
(198 82)
(199 76)
(84 199)
(83 84)
(90 200)
(200 201)
(201 202)
(93 13)
(13 203)
(203 93)
(202 13)
(204 92)
(14 204)
(205 15)
(15 206)
(206 14)
(188 207)
(207 208)
(209 210)
(210 205)
(211 212)
(212 209)
(213 214)
(214 211)
(215 216)
(216 213)
(217 218)
(218 215)
(219 220)
(220 217)
(221 222)
(222 219)
(223 224)
(224 221)
(94 223)
(208 225)
(225 94)
(95 91)
(226 96)
(16 97)
(227 16)
(97 227)
(16 226)
(98 228)
(228 229)
(95 16)
(229 231)
(98 97)
(232 90)
(233 232)
(100 98)
(231 100)
(101 234)
(234 235)
(236 233)
(237 236)
(102 101)
(235 102)
(17 237)
(104 17)
(103 104)
(96 105)
(238 106)
(107 238)
(99 109)
(239 99)
(109 239)
(111 240)
(240 109)
(112 108)
(105 107)
(106 241)
(242 113)
(18 242)
(116 243)
(243 115)
(241 114)
(117 18)
(113 118)
(244 72)
(19 244)
(245 116)
(119 245)
(79 246)
(246 120)
(121 19)
(120 116)
(123 119)
(20 247)
(124 20)
(125 124)
(248 89)
(82 20)
(21 249)
(22 21)
(23 22)
(250 122)
(24 23)
(18 21)
(25 251)
(127 25)
(128 127)
(252 82)
(75 25)
(26 253)
(27 26)
(28 27)
(254 114)
(29 28)
(107 26)
(30 255)
(130 30)
(131 130)
(256 75)
(19 30)
(137 139)
(139 257)
(257 258)
(258 259)
(259 260)
(260 261)
(261 262)
(262 263)
(263 138)
(138 264)
(264 265)
(265 266)
(266 267)
(267 268)
(268 269)
(269 270)
(31 271)
(270 272)
(272 140)
(133 31)
(141 142)
(142 273)
(273 274)
(274 275)
(275 276)
(276 277)
(277 278)
(279 136)
(278 279)
(280 143)
(145 281)
(281 282)
(282 283)
(284 285)
(285 286)
(287 288)
(286 287)
(288 147)
(147 289)
(289 290)
(290 291)
(291 292)
(292 293)
(293 294)
(295 148)
(294 295)
(148 146)
(283 284)
(89 31)
(32 296)
(150 32)
(33 150)
(297 108)
(151 33)
(16 32)
(298 299)
(299 300)
(300 301)
(301 302)
(302 303)
(34 35)
(304 36)
(38 37)
(36 38)
(305 304)
(303 305)
(37 306)
(152 298)
(35 307)
(307 308)
(308 309)
(309 310)
(310 311)
(311 312)
(312 313)
(313 152)
(153 34)
(92 37)
(36 15)
(35 17)
(306 39)
(39 40)
(40 34)
(151 41)
(41 42)
(42 297)
(24 43)
(43 44)
(44 250)
(132 45)
(45 46)
(46 256)
(254 47)
(47 48)
(48 253)
(125 49)
(49 50)
(50 126)
(137 51)
(51 52)
(52 146)
(128 53)
(53 54)
(54 129)
(78 132)
(314 95)
(115 29)
(38 14)
(84 129)
(22 115)
(27 109)
(88 126)
(119 24)
(45 55)
(55 56)
(56 46)
(131 55)
(255 56)
(57 54)
(53 58)
(58 57)
(251 58)
(252 57)
(59 50)
(49 60)
(60 59)
(247 60)
(248 59)
(61 52)
(62 61)
(51 62)
(61 280)
(62 271)
(64 40)
(63 64)
(39 63)
(64 153)
(63 314)
(41 65)
(65 66)
(66 42)
(33 65)
(296 66)
(47 67)
(67 68)
(68 48)
(29 67)
(28 68)
(43 69)
(69 70)
(70 44)
(23 69)
(249 70)
(134 159)
(159 135)
(140 160)
(160 161)
(161 162)
(162 163)
(163 164)
(164 165)
(165 166)
(166 167)
(167 141)
(143 144)
(144 145)
(87 168)
(169 87)
(170 89)
(149 171)
(171 141)
(172 173)
(174 175)
(176 177)
(178 179)
(180 181)
(182 183)
(184 185)
(149 186)
(140 145)
(183 180)
(181 178)
(179 176)
(175 172)
(134 170)
(173 135)
(185 182)
(89 169)
(168 143)
(177 174)
(186 184)
(71 75)
2{75}
(75 77)
(77 75)
(154 81)
(80 82)
(82 154)
(82 83)
(76 84)
(85 155)
(155 84)
2{84}
(84 86)
(86 84)
(86 82)
(81 156)
(157 85)
(88 157)
(156 89)
(158 88)
(89 158)
(109 110)
2{109}
(109 112)
(112 109)
(111 115)
(115 117)
2{115}
)

// concaveStart mixedStart nonFeatureStart
13 71 154
// internalStart flatStart openStart multipleStart
86 368 368 406
// normals

572
(
(0.2600259 0.0001168088 0.9656016)
(0 0 0)
(0.2600493 -0.004635768 0.9655842)
(0 0 0)
(0.9074485 -0.0001419049 -0.4201634)
(-0.499684 0.0001102119 0.8662078)
(0.8666502 0 0.4989163)
(0.0009307084 -0.9999994 0.000656637)
(0.8666502 -0 0.4989163)
(0.8666502 -1.284652e-05 0.4989162)
(0.8666502 4.90478e-06 0.4989163)
(-0.8666502 -4.90478e-06 -0.4989163)
(0.8666518 -0.0006400282 0.498913)
(3.741592e-05 -1 0.0001392885)
(0.8666502 -2.216243e-06 0.4989162)
(0.2591724 0.0001507069 0.9658311)
(0.307165 -0.0002044939 -0.9516562)
(0.5022087 -0.8149523 0.2892043)
(0 0 0)
(0.8666425 -0.001003579 0.4989285)
(0.8666502 -0 0.4989163)
(0.001352378 -0.9999987 0.0009007805)
(0.8666502 2.248791e-08 0.4989163)
(0.8666497 -3.733602e-05 0.4989171)
(3.85814e-05 -1 0.0001438757)
(0.8666497 1.143757e-05 0.4989171)
(0 0 0)
(-0.341981 -0.000134044 -0.9397068)
(-0.259007 -0.0001458414 -0.9658754)
(-0.259425 -0.0001476197 -0.9657633)
(0.9655728 0.009361147 -0.2599646)
(-0.0001426991 -1 3.841938e-05)
(0.9656151 -6.290341e-07 -0.259976)
(0.9654779 -0.01598256 -0.2599941)
(-0.0005252818 -0.9999998 -0.0001767594)
(0.9656025 0 -0.2600225)
(4.473983e-05 -1 0.0001449466)
(0.9656006 -4.199492e-06 -0.2600296)
(0.9656005 -0.0005480047 -0.2600296)
(4.56291e-05 -1 0.0001447072)
(0.9656006 9.884569e-06 -0.2600297)
(0.9656016 -4.198968e-06 -0.2600261)
(0.8662081 9.946481e-05 0.4996835)
(0.9656015 9.885096e-06 -0.2600264)
(0.8662079 0.0001184713 0.4996838)
(-0.8666486 -0.0001671554 -0.4989191)
(0 0 0)
(-0.8666484 -0.0001917747 -0.4989194)
(0 0 0)
(0.9376279 -0.0001575359 -0.3476405)
(0.2592377 0.0001613448 0.9658135)
(0.8581469 0.4584392 -0.231122)
(0 0 0)
(-0.9656069 -0.002425569 0.259995)
(-0.5444714 -0.0001406012 -0.8387794)
(0 0 0)
(0.8662909 0.0001089135 0.4995399)
(0.0001636196 -1 9.443066e-05)
(9.760816e-05 -1 0.0001340225)
(-0.9658312 -8.068362e-07 0.2591718)
(-0.9658387 5.427719e-05 0.2591441)
(-0.9659028 0.0005241328 0.2589044)
(-0.965848 0.000128007 0.2591091)
(-0.9657664 -0.000451538 0.259413)
(-0.9658301 -6.884405e-06 0.259176)
(-0.9658099 -0.0001452345 0.2592511)
(-0.9658572 0.0001729163 0.2590751)
(-0.9658333 1.518185e-05 0.2591641)
(0.965831 0 -0.2591726)
(0.9658309 -1.266047e-05 -0.2591732)
(0.0003281128 -0.9999999 5.974512e-05)
(-0.001113254 -0.9999993 0.0004481984)
(-0.8662111 -0.0001055522 -0.4996782)
(-0.1835276 -0.7071991 -0.6827789)
(-0.1832807 -0.7071969 -0.6828476)
(0.01273926 0.9987899 0.04750298)
(0.03783835 0.9892939 0.1409464)
(0.06299177 0.9700618 0.2345465)
(0.08744236 0.9413922 0.325783)
(0.1108837 0.9042116 0.4124392)
(0.1333752 0.8574433 0.496993)
(0.1542465 0.8034037 0.5751091)
(0.1742782 0.7411108 0.6483686)
(0.01273867 -0.9987914 0.04747107)
(0.1333257 0.8580755 0.495914)
(0.1097183 0.9060154 0.4087762)
(0.08711425 0.941912 0.3243652)
(0.03801537 0.9891717 0.1417542)
(-0.866106 -6.880942e-05 -0.4998603)
(0.0126533 0.9988088 0.04712716)
(0.1546745 0.8024242 0.5763603)
(0.0001790404 -1 0.0001032803)
(-3.277303e-05 -1 0.0001602398)
(0.06329227 0.9697478 0.2357612)
(0.1740673 0.7405978 0.6490111)
(0.2600263 0 0.9656015)
(-0.4989163 0 0.8666502)
(0 1 0)
(0.260027 0 0.9656013)
(0.8666496 0 0.4989172)
(-3.842529e-05 -3.786021e-05 -1)
(0.2600262 -0 0.9656016)
(0.8666496 0 0.4989172)
(0.2598796 0 0.965641)
(-0.4989163 0 0.8666502)
(0.2600263 -3.156527e-05 0.9656015)
(0 -1 0)
(0 1 0)
(0.9656015 0 -0.2600263)
(0.9656015 0 -0.2600263)
(0 -1 0)
(0.4989172 0 -0.8666496)
(0 1 0)
(0.4989172 0 -0.8666496)
(-0.2581931 0 -0.9660933)
(0.4989172 0 -0.8666496)
(-0.2600263 0 -0.9656015)
(-0.395138 -0.6103931 0.6865029)
(0.4988969 0.008850192 -0.8666161)
(-9.021562e-05 -0.9999999 0.0003624259)
(0.0001359072 -1 -3.647154e-05)
(-0.500159 0.8518684 -0.1554387)
(0.4989088 -0.0004987261 -0.8666544)
(0 1 0)
(3.791823e-05 -1 0.0001408952)
(3.793366e-05 -1 0.0001408678)
(-0.2600283 0 -0.965601)
(-0.8666496 0 -0.4989172)
(0 1 0)
(-0.2600284 0 -0.965601)
(0.519922 -4.421942e-05 0.8542137)
(0.4996829 -0.00011039 -0.8662084)
(-0.8666496 -0 -0.4989172)
(-0.2600263 -0.0001582695 -0.9656015)
(0 -1 0)
(0.7827595 -7.217984e-05 0.6223243)
(-0.1882573 -8.560361e-06 -0.9821197)
(0.4996822 -8.211972e-05 -0.8662088)
(0 1 0)
(-0.8666508 0 -0.4989153)
(-0.9656015 0 0.2600263)
(0.7754014 -0.0001925142 -0.6314687)
(-0.259172 -0.000150647 -0.9658312)
(-0.2591717 -0.000147888 -0.9658312)
(-0.8666505 0 -0.4989158)
(-0.9656015 0 0.2600263)
(-0 0.0001797811 1)
(0 1 -0.000115452)
(3.664081e-05 -1 0.0001365457)
(0 -1 0)
(-0.4989172 0 0.8666496)
(-0.9656013 0 0.2600271)
(-0.4989172 0 0.8666496)
(0.4867886 -0.0001065213 -0.8735198)
(-0.8662084 -0.0001176135 -0.499683)
(-0.8662079 -9.975569e-05 -0.4996838)
(-0.0001436279 -1 3.868285e-05)
(4.468678e-05 -1 0.0001449632)
(-0.9656009 0 0.2600285)
(-1 -3.699283e-05 3.740539e-05)
(-0.4988889 0.01604295 0.8665174)
(0 -0.9999999 0.0003497553)
(-0.4989517 2.353755e-06 0.8666298)
(0.4989517 -2.353767e-06 -0.8666298)
(3.387851e-05 -1 0.0001416613)
(0 0 -1)
(0.9658482 4.274621e-05 -0.2591087)
(0 0 1)
(4.206969e-05 -1 0.0001423402)
(-4.236443e-05 1 -0.0001418292)
(4.267327e-05 -1 0.0001573228)
(-4.501094e-05 1 -0.0001566954)
(3.511811e-05 -1 0.0001444342)
(-3.705246e-05 1 -0.00014555)
(4.054386e-05 -1 0.0001510054)
(-0.9658292 0.0002219963 0.2591793)
(3.787338e-05 -1 0.0001411205)
(-0.01276447 0.9987867 -0.04756186)
(3.787094e-05 -1 0.0001411212)
(-3.732148e-05 1 -0.0001390737)
(0.1833147 -0.7069914 0.6830512)
(-0.1738012 0.7418919 -0.6476029)
(3.791879e-05 -1 0.000140819)
(0.4996819 0 -0.866209)
(0.0001372973 -1 -3.683284e-05)
(-0 -1 0)
(-0.499381 7.402052e-05 0.8663825)
(3.775029e-05 -1 0.0001406805)
(0 -1 0)
(0.4998234 -0.00012315 -0.8661273)
(0.61248 -0.707045 0.3534905)
(-0.5822231 0.7403388 -0.3360278)
(0.2596645 0.03623973 0.9650187)
(3.789241e-05 -1 0.0001408236)
(0 -1 0)
(0.191544 9.764888e-06 0.981484)
(0.4997577 -0.0001022312 -0.8661653)
(0 -1 0)
(3.791538e-05 -1 0.0001407829)
(0.2567607 -0.1579754 0.9534766)
(0.000513202 -0.999998 0.001921321)
(-0.4996836 9.945527e-05 0.866208)
(0.2550651 0.2513141 0.9336932)
(-0.0001911725 -0.9999998 0.0005467727)
(0.2600394 -7.942158e-05 0.965598)
(3.792773e-05 -1 0.0001408361)
(0.8659864 0.03610218 0.4987627)
(-1.6963e-06 -1 -9.769796e-07)
(5.746796e-05 -1 0.0002114877)
(-1.646322e-06 -1 -9.480592e-07)
(3.663627e-05 -1 0.0001365288)
(0.2591721 0.0001463886 0.9658311)
(0 0 0)
(0.9656011 0 -0.2600277)
(0.4989175 0 -0.8666495)
(0.526581 -0.1583937 -0.8352388)
(-0.2105521 0.9699921 -0.1215856)
(-0.2096205 0.9702813 -0.1208865)
(0.498918 5.082139e-05 -0.8666492)
(-0.2929998 0.9410632 -0.1689707)
(0.5358315 -0.8318958 -0.1443396)
(0.4989282 0.0007179855 -0.866643)
(-0.3695625 0.9044256 -0.2131617)
(-0.3682402 0.9051584 -0.2123382)
(0.4988357 -0.005269592 -0.8666805)
(-0.2911588 0.9418191 -0.1679388)
(0.4989519 3.72281e-06 -0.8666297)
(-0.9658275 7.154884e-06 0.2591859)
(0.4989316 0 -0.8666414)
(-0.965906 0 0.2588929)
(0.498919 0.001704077 -0.8666469)
(0.04269075 -0.9987853 0.02460338)
(-0.0001032034 1 -2.688577e-05)
(0.4988984 -6.528541e-06 -0.8666605)
(-0.0001349245 1 3.616398e-05)
(0.4989107 -0.0003952541 -0.8666533)
(-0.5165361 0.8027736 -0.2979009)
(0.499049 0.007050278 -0.8665451)
(-0.5162633 0.8030263 -0.2976928)
(0.4983522 0.00340435 -0.866968)
(0.126463 -0.9892837 0.07297185)
(0.04284689 -0.9987757 0.02472356)
(0.4992984 -0.002381286 -0.8664268)
(0.2104072 -0.9700415 0.1214425)
(0.1283358 -0.9889606 0.07407267)
(0.5026567 -0.01176149 -0.8644061)
(0.2924993 -0.9412639 0.1687199)
(0.2101481 -0.9701258 0.121218)
(0.4858836 0.03177815 -0.8734456)
(0.3692644 -0.9046455 0.2127446)
(0.2953204 -0.9401261 0.1701432)
(0.503857 -0.010042 -0.8637287)
(0.4457817 -0.8574057 0.2571656)
(0.3716328 -0.9032862 0.2143901)
(0.4968831 0.003058603 -0.8678121)
(0.5161365 -0.8030318 0.2978976)
(0.4440556 -0.8585614 0.2562947)
(0.5178837 -0.02471741 -0.8550939)
(0.5812993 -0.7413662 0.3353613)
(0.518631 -0.8009352 0.2992069)
(0.5027346 -0.004417982 -0.8644295)
(0.6126137 -0.7070271 0.3532947)
(0.5826353 -0.7400243 0.3360061)
(0.4056557 0.1016244 -0.9083589)
(0.4989135 -0.0001635857 -0.8666518)
(-0.5814357 0.7412992 -0.3352731)
(0.4988746 -0.001826061 -0.8666723)
(-0.2599992 0.004385328 -0.9655989)
(0 -1 0)
(-0.9996774 0.0001481767 0.02539856)
(0.24903 0 0.9684958)
(-0.4995893 0.0001093836 0.8662624)
(-0.2600264 0.0001864729 -0.9656015)
(-0 -1 0)
(-0.402055 -0.0006681378 -0.9156153)
(0.5000164 0.005714146 -0.8659971)
(0.4997367 0.0008304659 -0.866177)
(-0.2600275 0 -0.9656012)
(0 -1 0)
(-0.2455078 0 -0.9693946)
(0.4996877 0 -0.8662057)
(-0.2428332 0 -0.9700681)
(-0.213601 0.9678276 -0.1329827)
(-0.2602017 -8.879757e-05 -0.9655543)
(-0.1269727 0.9891965 -0.07326879)
(-0.2455078 -0 -0.9693946)
(0 0 0)
(0.4995056 -0.003008698 -0.8663054)
(-0.3201088 -0 -0.9473808)
(0.4998017 0.001856606 -0.8661379)
(0.499584 -0.001673178 -0.8662639)
(0.4996894 0 -0.8662047)
(-0.2599229 -5.860188e-05 -0.9656294)
(-0.1266424 0.9892553 -0.07304613)
(-0.2600444 -0.0001235155 -0.9655966)
(-0.04188043 0.9988306 -0.02415623)
(-0.3201088 -0 -0.9473808)
(0.4996842 -0.0001126961 -0.8662077)
(-0.2601441 -0.0001902739 -0.9655698)
(-0.04243639 0.9987947 -0.02466229)
(-0.2600118 -5.210619e-05 -0.9656054)
(-0.1986435 -0 -0.9800718)
(-0.8659938 0.03569617 -0.498779)
(0.0001141152 -0.9999999 0.0004147644)
(1.602019e-05 -1 0.0001279861)
(-0.8666474 0.0006208864 -0.4989207)
(3.838117e-05 -1 0.0001430889)
(-0.4685094 -0.8413213 -0.2695874)
(0.0001123799 -0.9999999 0.000408683)
(0.0009327599 -0.9999993 0.0006584715)
(3.704663e-05 -1 0.0001380206)
(-0.8666496 -0.006976945 -0.4988685)
(-0.9650744 0.03460794 0.2596799)
(-0.0001436155 -1 3.86437e-05)
(-0.0006880626 -0.9999997 0.0003340187)
(-0.9656007 -0.0002292175 0.2600294)
(0.0001787365 -1 0.000103067)
(-0.002842786 -0.9999955 0.0009103319)
(-0.9656014 -6.929623e-05 0.2600269)
(0.0001790927 -1 0.0001032724)
(-0.9351549 -0.249092 0.25187)
(4.473994e-05 -1 0.0001449467)
(0.8662909 0.0001014706 0.4995399)
(-0.4986824 -0.0225101 0.8664925)
(-0.0001035539 -1 0.0001799315)
(-0.0002633629 -0.9999997 0.0006601271)
(-0.4989168 6.093089e-05 0.8666499)
(0.0001392051 -1 -3.733633e-05)
(0.0007351048 -0.9999997 -5.360979e-05)
(3.804695e-05 -1 0.000140497)
(0.0007770833 -0.9999991 -0.001137413)
(-0.4989168 -1.860447e-05 0.8666499)
(0.9658626 -4.556361e-06 -0.2590549)
(-0.498931 -0.001237911 0.8666408)
(0 0 0)
(-0.9658311 5.513092e-06 0.2591723)
(-0.9658311 0 0.2591722)
(-0.8662073 -0.0001063531 -0.4996849)
(-1.426262e-05 -1 0.0001101225)
(-0.2590616 -0.0001519841 -0.9658608)
(-0.8662075 -0.0001024348 -0.4996844)
(0.0002492785 -0.9999999 0.000262788)
(0.9658313 5.909509e-07 -0.2591717)
(0.0002372024 -1 8.678633e-05)
(0.866322 0.0001021473 0.499486)
(0.9658313 5.66582e-07 -0.2591717)
(0.0002139053 -1 9.357847e-05)
(3.801478e-05 -1 0.0001416536)
(-3.74453e-05 1 -0.0001395316)
(-0.2591723 -0.0001481087 -0.9658311)
(0 -1 0)
(0.4999672 -0.0001050751 -0.8660443)
(-0.2591727 -0.0001450357 -0.965831)
(0 -1 0)
(0.8662076 0.0001079782 0.4996842)
(0.0001953188 -1 0.0002316606)
(0.2593465 0.0001490932 0.9657843)
(0.8662073 0.0001020008 0.4996849)
(-0.0001473812 -1 3.39337e-05)
(4.45841e-05 -1 0.0001445117)
(-4.508955e-05 1 -0.0001436355)
(0.2590749 0.0001461736 0.9658572)
(0.4996849 -0.0001014161 -0.8662073)
(0.0001067364 -1 2.019392e-05)
(0.9657476 5.201399e-07 -0.2594832)
(0.4996847 -9.928636e-05 -0.8662074)
(6.09534e-06 -1 0.0001956392)
(-0.9658312 -1.118304e-05 0.2591719)
(-0.9656667 -0.00552053 0.2597254)
(-0.03788973 0.9892575 -0.1411877)
(-0.9658727 0.002059911 0.259009)
(-0.06295834 0.9700503 -0.2346033)
(-0.9657802 -0.0003989448 0.2593615)
(-0.0876557 0.9410484 -0.3267177)
(-0.9657607 -0.0007729157 0.2594333)
(-0.110602 0.9043726 -0.4121619)
(-0.965848 0.0005686871 0.2591089)
(-0.1333461 0.8574288 -0.4970259)
(-0.9657471 -0.0007121604 0.2594842)
(-0.1544662 0.802993 -0.5756235)
(-0.965692 -0.001299184 0.259687)
(-0.1738366 0.7415899 -0.6479392)
(-0.9658312 9.115251e-06 0.2591718)
(0.1833047 -0.7069922 0.683053)
(-0.9658353 -0.0001469102 0.2591567)
(0.1739873 -0.7412099 0.6483335)
(-0.9658387 -0.0002717775 0.2591439)
(0.1544406 -0.8030012 0.5756189)
(-0.9658401 -0.0003255578 0.2591384)
(0.1333785 -0.8573903 0.4970835)
(-0.9658066 0.0009064082 0.2592618)
(0.1107385 -0.9041342 0.4126479)
(-0.9658567 -0.0009744174 0.2590751)
(0.08753699 -0.9412499 0.3261685)
(-0.9658043 0.001007376 0.2592702)
(0.06295312 -0.9700521 0.2345973)
(-0.9658312 -1.877521e-06 0.259172)
(0.000213215 -1 9.376381e-05)
(-0.9658039 0.001022192 0.2592716)
(0.03795546 -0.9892186 0.1414425)
(-0.965844 -0.00049976 0.2591236)
(-0.965831 5.018493e-07 0.2591726)
(-0.8662691 -0.0001042647 -0.4995777)
(-0.965828 1.921066e-05 0.2591838)
(-0.9658398 -0.0005516275 0.2591394)
(0.1739895 0.7412638 0.6482713)
(-0.9658389 -0.0004954199 0.2591428)
(0.1545415 0.8032671 0.5752208)
(-0.9658271 0.0004456978 0.2591868)
(0.1334668 0.857407 0.497031)
(-0.9657899 0.0008231361 0.2593245)
(0.1101644 0.9044455 0.4121191)
(-0.9659947 -0.003248655 0.2585413)
(0.08730172 0.941428 0.3257173)
(-0.9657084 0.004136686 0.2595964)
(0.06312882 0.9700369 0.234613)
(-0.9659241 -0.004392899 0.258788)
(0.01270551 0.9987911 0.04748609)
(0.0379031 0.9892868 0.1409785)
(0.9658418 0.0004088865 -0.2591322)
(0.0127386 -0.9987914 0.04747091)
(0.9658039 -0.001023242 -0.2592715)
(0.03795546 -0.9892186 0.1414425)
(0.9658729 0.001636149 -0.2590112)
(0.06297713 -0.9700361 0.2346569)
(0.9658361 0.0001903023 -0.2591537)
(0.110693 -0.9041901 0.4125377)
(0.9658198 -0.0004130218 -0.2592142)
(0.1333528 -0.8574297 0.4970224)
(0.9658351 0.0001475476 -0.2591573)
(0.1739873 -0.7412099 0.6483335)
(0.9658336 9.365646e-05 -0.2591628)
(0.1545277 -0.8028398 0.5758207)
(0.965831 4.444374e-07 -0.2591728)
(0.965927 -0.0008847607 -0.2588133)
(0.9658394 6.388956e-05 -0.2591414)
(-0.1544905 0.8028398 -0.5758307)
(0.9658973 -0.0006756112 -0.2589247)
(-0.1333206 0.85755 -0.4968235)
(0.9658866 -0.0005096631 -0.2589648)
(-0.1106256 0.904289 -0.4123389)
(0.9658745 -0.000273064 -0.2590104)
(-0.08763686 0.9410973 -0.3265817)
(0.965915 -0.001349143 -0.2588561)
(-0.06297662 0.970018 -0.2347317)
(0.965862 0.0007525629 -0.2590559)
(-0.01276515 0.9987865 -0.04756653)
(-0.03789028 0.9892569 -0.1411916)
(0.9658309 1.362773e-05 -0.2591729)
(0.9658296 -5.265772e-05 -0.2591778)
(0.08751904 -0.9412668 0.3261245)
(0.2591723 0.0001519839 0.9658311)
(0 -1 0)
(-0.4996566 0.0001085881 0.8662236)
(0.259172 0.0001490925 0.9658312)
(0 -1 0)
(4.287735e-05 -1 0.0001606391)
(-4.308712e-05 1 -0.0001605828)
(-0.4998048 -0.001858287 0.8661361)
(0.5813144 -0.7412911 0.3355012)
(-0.4995864 0.001681067 0.8662624)
(0.5161866 -0.8028733 0.2982379)
(-0.4996456 0.0007205907 0.8662296)
(0.445749 -0.857477 0.2569843)
(-0.4998637 -0.002930004 0.8660991)
(0.369414 -0.9044139 0.2134685)
(-0.4996553 0.0005924611 0.8662241)
(0.2925584 -0.9411987 0.1689813)
(-0.4996851 0.0001256004 0.8662072)
(3.390355e-05 -1 0.0001475054)
(-0.497981 -0.005625874 0.8671697)
(0.04270614 -0.9987832 0.02466311)
(-0.4996907 0.0001001738 0.8662039)
(-0.9659063 2.149514e-07 0.258892)
(-8.923757e-05 1 -5.142907e-05)
(-0.4998767 -0.003211687 0.8660906)
(0.1265469 -0.9892483 0.07330585)
(-0.4996037 0.001456611 0.8662529)
(0.2103764 -0.9700641 0.1213152)
(-0.4996843 0.0001112281 0.8662076)
(-4.860445e-05 -1 0.000290462)
(-0.4996851 0.0001328658 0.8662071)
(0.6126092 -0.707027 0.3533027)
(-0.49927 -0.00355131 0.8664392)
(-0.04260946 0.9987864 -0.02469973)
(-0.1266701 0.989252 -0.07304271)
(-0.5003128 0.008886253 0.8657991)
(-0.210568 0.9699985 -0.121507)
(-0.4988264 -0.002826672 0.8666973)
(-0.2926519 0.9411541 -0.1690676)