/*--------------------------------*- C++ -*----------------------------------*\
  =========                 |
  \\      /  F ield         | OpenFOAM: The Open Source CFD Toolbox
   \\    /   O peration     | Website:  https://openfoam.org
    \\  /    A nd           | Version:  6
     \\/     M anipulation  |
\*---------------------------------------------------------------------------*/
FoamFile
{
    version     2.0;
    format      ascii;
    class       extendedFeatureEdgeMesh;
    location    "constant/extendedFeatureEdgeMesh";
    object      domain.extendedFeatureEdgeMesh;
}
// * * * * * * * * * * * * * * * * * * * * * * * * * * * * * * * * * * * * * //

// points

100
(
(-0.922402 1.311029 -2.329726)
(-1.20712 1.311029 -2.195747)
(-1.20712 -3.721386 -2.195747)
(-0.922402 -3.721386 -2.329726)
(0.31404 1.311029 2.485925)
(0.623133 1.311029 2.426963)
(0.623133 -3.721386 2.426963)
(0.31404 -3.721386 2.485925)
(-0.623136 1.311029 -2.426963)
(-0.623136 -3.721386 -2.426963)
(0 1.311029 2.505683)
(0 -3.721386 2.505683)
(-0.314043 1.311029 -2.485925)
(-0.314043 -3.721386 -2.485925)
(2e-06 1.311029 -2.505683)
(2e-06 -3.721386 -2.505683)
(0.314047 1.311029 -2.485924)
(0.314047 -3.721386 -2.485924)
(0.62314 1.311029 -2.426961)
(0.62314 -3.721386 -2.426961)
(-0.314045 1.311029 2.485925)
(-0.314045 -3.721386 2.485925)
(0.922406 1.311029 -2.329724)
(0.922406 -3.721386 -2.329724)
(-0.623138 1.311029 2.426962)
(-0.623138 -3.721386 2.426962)
(1.207124 1.311029 -2.195745)
(1.207124 -3.721386 -2.195745)
(-0.922403 1.311029 2.329725)
(-0.922403 -3.721386 2.329725)
(1.472806 1.311029 -2.027138)
(1.472806 -3.721386 -2.027138)
(-1.207122 1.311029 2.195746)
(-1.207122 -3.721386 2.195746)
(1.71526 1.311029 -1.826562)
(1.71526 -3.721386 -1.826562)
(-1.472803 1.311029 2.02714)
(-1.472803 -3.721386 2.02714)
(1.930664 1.311029 -1.59718)
(1.930664 -3.721386 -1.59718)
(-1.715258 1.311029 1.826564)
(-1.715258 -3.721386 1.826564)
(2.11562 1.311029 -1.342609)
(2.11562 -3.721386 -1.342609)
(-1.930662 1.311029 1.597182)
(-1.930662 -3.721386 1.597182)
(2.267211 1.311029 -1.066865)
(2.267211 -3.721386 -1.066865)
(-2.115618 1.311029 1.342612)
(-2.115618 -3.721386 1.342612)
(2.383047 1.311029 -0.774295)
(2.383047 -3.721386 -0.774295)
(-2.26721 1.311029 1.066868)
(-2.26721 -3.721386 1.066868)
(2.461301 1.311029 -0.469515)
(2.461301 -3.721386 -0.469515)
(-2.383046 1.311029 0.774298)
(-2.383046 -3.721386 0.774298)
(2.500738 1.311029 -0.15733)
(2.500738 -3.721386 -0.15733)
(-2.4613 1.311029 0.469518)
(-2.4613 -3.721386 0.469518)
(2.500738 1.311029 0.157337)
(2.500738 -3.721386 0.157337)
(-2.500738 1.311029 0.157332)
(-2.500738 -3.721386 0.157332)
(2.4613 1.311029 0.469522)
(2.4613 -3.721386 0.469522)
(-2.500738 1.311029 -0.157334)
(-2.500738 -3.721386 -0.157334)
(2.383045 1.311029 0.774302)
(2.383045 -3.721386 0.774302)
(-2.4613 1.311029 -0.469519)
(-2.4613 -3.721386 -0.469519)
(2.267208 1.311029 1.066872)
(2.267208 -3.721386 1.066872)
(-2.383045 1.311029 -0.7743)
(-2.383045 -3.721386 -0.7743)
(2.115616 1.311029 1.342616)
(2.115616 -3.721386 1.342616)
(-2.267209 1.311029 -1.066869)
(-2.267209 -3.721386 -1.066869)
(1.930659 1.311029 1.597185)
(1.930659 -3.721386 1.597185)
(-2.115617 1.311029 -1.342613)
(-2.115617 -3.721386 -1.342613)
(1.715255 1.311029 1.826567)
(1.715255 -3.721386 1.826567)
(-1.930661 1.311029 -1.597183)
(-1.930661 -3.721386 -1.597183)
(1.4728 1.311029 2.027143)
(1.4728 -3.721386 2.027143)
(-1.715257 1.311029 -1.826565)
(-1.715257 -3.721386 -1.826565)
(1.207118 1.311029 2.195749)
(1.207118 -3.721386 2.195749)
(-1.472802 1.311029 -2.027141)
(-1.472802 -3.721386 -2.027141)
(0.922399 1.311029 2.329726)
(0.922399 -3.721386 2.329726)
)

// edges

100
(
(0 1)
(2 3)
(4 5)
(6 7)
(8 0)
(3 9)
(10 4)
(7 11)
(12 8)
(9 13)
(14 12)
(13 15)
(16 14)
(15 17)
(18 16)
(17 19)
(20 10)
(11 21)
(22 18)
(19 23)
(24 20)
(21 25)
(26 22)
(23 27)
(28 24)
(25 29)
(30 26)
(27 31)
(32 28)
(29 33)
(34 30)
(31 35)
(36 32)
(33 37)
(38 34)
(35 39)
(40 36)
(37 41)
(42 38)
(39 43)
(44 40)
(41 45)
(46 42)
(43 47)
(48 44)
(45 49)
(50 46)
(47 51)
(52 48)
(49 53)
(54 50)
(51 55)
(56 52)
(53 57)
(58 54)
(55 59)
(60 56)
(57 61)
(62 58)
(59 63)
(64 60)
(61 65)
(66 62)
(63 67)
(68 64)
(65 69)
(70 66)
(67 71)
(72 68)
(69 73)
(74 70)
(71 75)
(76 72)
(73 77)
(78 74)
(75 79)
(80 76)
(77 81)
(82 78)
(79 83)
(84 80)
(81 85)
(86 82)
(83 87)
(88 84)
(85 89)
(90 86)
(87 91)
(92 88)
(89 93)
(94 90)
(91 95)
(96 92)
(93 97)
(98 94)
(95 99)
(1 96)
(97 2)
(5 98)
(99 6)
)

// concaveStart mixedStart nonFeatureStart
0 0 0
// internalStart flatStart openStart multipleStart
0 0 0 100
// normals

100
(
(0.4257819 0 0.9048258)
(0.4257819 0 0.9048258)
(-0.1873789 0 -0.9822877)
(-0.1873789 -0 -0.9822877)
(0.3090161 0 0.9510568)
(0.3090161 0 0.9510568)
(-0.06279135 0 -0.9980267)
(-0.06279135 -0 -0.9980267)
(0.1873789 0 0.9822877)
(0.1873789 0 0.9822877)
(0.06279036 0 0.9980267)
(0.06279036 0 0.9980267)
(-0.06279338 0 0.9980265)
(-0.06279338 0 0.9980265)
(-0.1873826 0 0.982287)
(-0.1873826 0 0.982287)
(0.06279036 0 -0.9980267)
(0.06279036 0 -0.9980267)
(-0.3090154 0 0.951057)
(-0.3090154 0 0.951057)
(0.1873826 0 -0.982287)
(0.1873826 0 -0.982287)
(-0.4257818 0 0.9048259)
(-0.4257818 0 0.9048259)
(0.3090164 0 -0.9510567)
(0.3090164 0 -0.9510567)
(-0.535827 0 0.8443278)
(-0.535827 0 0.8443278)
(0.4257806 0 -0.9048264)
(0.4257806 0 -0.9048264)
(-0.637425 0 0.7705124)
(-0.637425 0 0.7705124)
(0.5358262 0 -0.8443283)
(0.5358262 0 -0.8443283)
(-0.7289689 0 0.6845468)
(-0.7289689 0 0.6845468)
(0.6374235 0 -0.7705137)
(0.6374235 0 -0.7705137)
(-0.809018 0 0.5877838)
(-0.809018 0 0.5877838)
(0.7289685 0 -0.6845472)
(0.7289685 0 -0.6845472)
(-0.8763074 0 0.4817524)
(-0.8763074 0 0.4817524)
(0.809017 0 -0.5877853)
(0.809017 0 -0.5877853)
(-0.929777 0 0.3681231)
(-0.929777 0 0.3681231)
(0.8763061 0 -0.4817547)
(0.8763061 0 -0.4817547)
(-0.9685833 0 0.2486893)
(-0.9685833 0 0.2486893)
(0.9297773 0 -0.3681226)
(0.9297773 0 -0.3681226)
(-0.9921152 0 0.1253291)
(-0.9921152 0 0.1253291)
(0.9685833 0 -0.2486892)
(0.9685833 0 -0.2486892)
(-1 0 -0)
(-1 -0 0)
(0.9921148 0 -0.1253324)
(0.9921148 0 -0.1253324)
(-0.9921148 0 -0.1253328)
(-0.9921148 -0 -0.1253328)
(1 0 -0)
(1 0 0)
(-0.9685826 0 -0.2486921)
(-0.9685826 -0 -0.2486921)
(0.9921148 0 0.1253328)
(0.9921148 0 0.1253328)
(-0.9297763 0 -0.3681251)
(-0.9297763 -0 -0.3681251)
(0.9685828 0 0.2486913)
(0.9685828 0 0.2486913)
(-0.876306 0 -0.4817549)
(-0.876306 -0 -0.4817549)
(0.9297769 0 0.3681235)
(0.9297769 0 0.3681235)
(-0.8090143 0 -0.587789)
(-0.8090143 -0 -0.587789)
(0.876306 0 0.4817549)
(0.876306 0 0.4817549)
(-0.7289687 0 -0.684547)
(-0.7289687 -0 -0.684547)
(0.8090168 0 0.5877855)
(0.8090168 0 0.5877855)
(-0.6374235 0 -0.7705137)
(-0.6374235 -0 -0.7705137)
(0.7289689 0 0.6845468)
(0.7289689 0 0.6845468)
(-0.5358248 0 -0.8443292)
(-0.5358248 -0 -0.8443292)
(0.6374237 0 0.7705135)
(0.6374237 0 0.7705135)
(-0.4257749 0 -0.9048291)
(-0.4257749 -0 -0.9048291)
(0.5358241 0 0.8443296)
(0.5358241 0 0.8443296)
(-0.3090161 0 -0.9510568)
(-0.3090161 -0 -0.9510568)
)

// normal volume types

100
(
0
0
0
0
0
0
0
0
0
0
0
0
0
0
0
0
0
0
0
0
0
0
0
0
0
0
0
0
0
0
0
0
0
0
0
0
0
0
0
0
0
0
0
0
0
0
0
0
0
0
0
0
0
0
0
0
0
0
0
0
0
0
0
0
0
0
0
0
0
0
0
0
0
0
0
0
0
0
0
0
0
0
0
0
0
0
0
0
0
0
0
0
0
0
0
0
0
0
0
0
)

// normalDirections

100
(
1(1)
1(1)
1(1)
1(1)
1(1)
1(1)
1(1)
1(1)
1(1)
1(1)
1(1)
1(1)
1(1)
1(1)
1(1)
1(1)
1(1)
1(1)
1(1)
1(1)
1(1)
1(1)
1(1)
1(1)
1(1)
1(1)
1(1)
1(1)
1(1)
1(1)
1(1)
1(1)
1(1)
1(1)
1(1)
1(1)
1(1)
1(1)
1(1)
1(1)
1(1)
1(1)
1(1)
1(1)
1(1)
1(1)
1(1)
1(1)
1(1)
1(1)
1(1)
1(1)
1(1)
1(1)
1(1)
1(1)
1(1)
1(1)
1(1)
1(1)
1(1)
1(1)
1(1)
1(1)
1(1)
1(1)
1(1)
1(1)
1(1)
1(1)
1(1)
1(1)
1(1)
1(1)
1(1)
1(1)
1(1)
1(1)
1(1)
1(1)
1(1)
1(1)
1(1)
1(1)
1(1)
1(1)
1(1)
1(1)
1(1)
1(1)
1(1)
1(1)
1(1)
1(1)
1(1)
1(1)
1(1)
1(1)
1(1)
1(1)
)

// edgeNormals

100
(
1(0)
1(1)
1(2)
1(3)
1(4)
1(5)
1(6)
1(7)
1(8)
1(9)
1(10)
1(11)
1(12)
1(13)
1(14)
1(15)
1(16)
1(17)
1(18)
1(19)
1(20)
1(21)
1(22)
1(23)
1(24)
1(25)
1(26)
1(27)
1(28)
1(29)
1(30)
1(31)
1(32)
1(33)
1(34)
1(35)
1(36)
1(37)
1(38)
1(39)
1(40)
1(41)
1(42)
1(43)
1(44)
1(45)
1(46)
1(47)
1(48)
1(49)
1(50)
1(51)
1(52)
1(53)
1(54)
1(55)
1(56)
1(57)
1(58)
1(59)
1(60)
1(61)
1(62)
1(63)
1(64)
1(65)
1(66)
1(67)
1(68)
1(69)
1(70)
1(71)
1(72)
1(73)
1(74)
1(75)
1(76)
1(77)
1(78)
1(79)
1(80)
1(81)
1(82)
1(83)
1(84)
1(85)
1(86)
1(87)
1(88)
1(89)
1(90)
1(91)
1(92)
1(93)
1(94)
1(95)
1(96)
1(97)
1(98)
1(99)
)

// featurePointNormals
0()
// featurePointEdges
0()
// regionEdges

100
(
0
1
2
3
4
5
6
7
8
9
10
11
12
13
14
15
16
17
18
19
20
21
22
23
24
25
26
27
28
29
30
31
32
33
34
35
36
37
38
39
40
41
42
43
44
45
46
47
48
49
50
51
52
53
54
55
56
57
58
59
60
61
62
63
64
65
66
67
68
69
70
71
72
73
74
75
76
77
78
79
80
81
82
83
84
85
86
87
88
89
90
91
92
93
94
95
96
97
98
99
)



// ************************************************************************* //
