/*--------------------------------*- C++ -*----------------------------------*\
  =========                 |
  \\      /  F ield         | OpenFOAM: The Open Source CFD Toolbox
   \\    /   O peration     | Website:  https://openfoam.org
    \\  /    A nd           | Version:  6
     \\/     M anipulation  |
\*---------------------------------------------------------------------------*/
FoamFile
{
    version     2.0;
    format      ascii;
    class       extendedFeatureEdgeMesh;
    location    "constant/extendedFeatureEdgeMesh";
    object      inlet.extendedFeatureEdgeMesh;
}
// * * * * * * * * * * * * * * * * * * * * * * * * * * * * * * * * * * * * * //

// points

106
(
(-1.016972 1.321624 -2.298111)
(-0.964595 1.321624 -2.322758)
(-0.926703 1.321624 -2.340589)
(-0.66587 1.321624 -2.425338)
(-0.626042 1.321624 -2.438279)
(-0.356643 1.321624 -2.489669)
(-0.315508 1.321624 -2.497516)
(-0.041793 1.321624 -2.514737)
(2e-06 1.321624 -2.517366)
(0.273717 1.321624 -2.500145)
(0.315512 1.321624 -2.497516)
(0.58491 1.321624 -2.446125)
(0.626046 1.321624 -2.438278)
(0.886879 1.321624 -2.353528)
(0.926707 1.321624 -2.340587)
(1.174861 1.321625 -2.223814)
(1.212753 1.321624 -2.205984)
(1.444315 1.321625 -2.05903)
(1.479673 1.321624 -2.036591)
(1.690991 1.321625 -1.861773)
(1.723258 1.321624 -1.835079)
(1.910999 1.321625 -1.635155)
(1.939666 1.321624 -1.604627)
(2.100869 1.321625 -1.382749)
(2.125484 1.321624 -1.34887)
(2.257608 1.321625 -1.108537)
(2.277782 1.321624 -1.07184)
(2.314508 1.321624 -0.979081)
(-0.866122 1.321624 2.360272)
(-0.886877 1.321624 2.353529)
(-0.926704 1.321624 2.340588)
(-1.174859 1.321624 2.223815)
(-1.212751 1.321624 2.205985)
(-1.444312 1.321624 2.059031)
(-1.479671 1.321624 2.036592)
(-1.646387 1.321624 1.898673)
(-1.87137 1.321624 -1.677356)
(-1.751922 1.321624 -1.804555)
(-1.723255 1.321624 -1.835082)
(-1.511937 1.321624 -2.009899)
(-1.47967 1.321624 -2.036593)
(-1.248107 1.321624 -2.183547)
(-1.212749 1.321624 -2.205986)
(2.378742 1.321624 -0.816842)
(2.394159 1.321624 -0.777906)
(2.462363 1.321624 -0.512266)
(2.472778 1.321624 -0.471704)
(2.507151 1.321624 -0.19961)
(2.512399 1.321624 -0.158063)
(2.512399 1.321624 -0.094364)
(2.512399 1.321624 0.116193)
(2.512399 1.321624 0.15807)
(2.478025 1.321624 0.430164)
(2.472776 1.321624 0.471711)
(2.404571 1.321624 0.737351)
(2.394156 1.321624 0.777913)
(2.293195 1.321624 1.03291)
(2.277779 1.321624 1.071846)
(2.145655 1.321624 1.312178)
(2.12548 1.321624 1.348876)
(1.964276 1.321624 1.570753)
(1.939661 1.321624 1.604633)
(1.75192 1.321624 1.804557)
(1.723253 1.321624 1.835084)
(1.511934 1.321625 2.009901)
(1.479667 1.321624 2.036595)
(1.248105 1.321625 2.183548)
(1.212746 1.321624 2.205987)
(0.964592 1.321624 2.322759)
(0.9267 1.321624 2.34059)
(0.665867 1.321624 2.425339)
(0.626039 1.321624 2.43828)
(0.35664 1.321624 2.48967)
(0.315505 1.321624 2.497517)
(0.041794 1.321624 2.514737)
(0 1.321624 2.517366)
(-0.273715 1.321624 2.500146)
(-0.31551 1.321624 2.497516)
(-0.584908 1.321624 2.446126)
(-0.626044 1.321624 2.438278)
(-1.690989 1.321624 1.861775)
(-1.723256 1.321624 1.835081)
(-1.910997 1.321624 1.635157)
(-1.939664 1.321624 1.60463)
(-2.100868 1.321624 1.382752)
(-2.125483 1.321624 1.348872)
(-2.257607 1.321624 1.10854)
(-2.277781 1.321624 1.071842)
(-2.378742 1.321624 0.816845)
(-2.394158 1.321624 0.777909)
(-2.462362 1.321624 0.512269)
(-2.472777 1.321624 0.471707)
(-2.50715 1.321624 0.199613)
(-2.512399 1.321624 0.158066)
(-2.512399 1.321624 -0.11619)
(-2.512399 1.321624 -0.158068)
(-2.478025 1.321624 -0.430161)
(-2.472777 1.321624 -0.471708)
(-2.404572 1.321624 -0.737348)
(-2.394157 1.321624 -0.77791)
(-2.293197 1.321624 -1.032907)
(-2.277781 1.321624 -1.071843)
(-2.145657 1.321624 -1.312176)
(-2.125482 1.321624 -1.348873)
(-1.964278 1.321624 -1.570751)
(-1.939664 1.321624 -1.604631)
)

// edges

106
(
(0 1)
(1 2)
(2 3)
(3 4)
(4 5)
(5 6)
(6 7)
(7 8)
(8 9)
(9 10)
(10 11)
(11 12)
(12 13)
(13 14)
(14 15)
(15 16)
(16 17)
(17 18)
(18 19)
(19 20)
(20 21)
(21 22)
(22 23)
(23 24)
(24 25)
(25 26)
(26 27)
(28 29)
(29 30)
(30 31)
(31 32)
(32 33)
(33 34)
(34 35)
(36 37)
(37 38)
(38 39)
(39 40)
(40 41)
(41 42)
(42 0)
(27 43)
(43 44)
(44 45)
(45 46)
(46 47)
(47 48)
(48 49)
(49 50)
(50 51)
(51 52)
(52 53)
(53 54)
(54 55)
(55 56)
(56 57)
(57 58)
(58 59)
(59 60)
(60 61)
(61 62)
(62 63)
(63 64)
(64 65)
(65 66)
(66 67)
(67 68)
(68 69)
(69 70)
(70 71)
(71 72)
(72 73)
(73 74)
(74 75)
(75 76)
(76 77)
(77 78)
(78 79)
(79 28)
(35 80)
(80 81)
(81 82)
(82 83)
(83 84)
(84 85)
(85 86)
(86 87)
(87 88)
(88 89)
(89 90)
(90 91)
(91 92)
(92 93)
(93 94)
(94 95)
(95 96)
(96 97)
(97 98)
(98 99)
(99 100)
(100 101)
(101 102)
(102 103)
(103 104)
(104 105)
(105 36)
)

// concaveStart mixedStart nonFeatureStart
0 0 0
// internalStart flatStart openStart multipleStart
0 0 0 106
// normals

56
(
(0 -1 0)
(0 -1 0)
(0 -1 0)
(0 -1 0)
(0 -1 0)
(0 -1 0)
(0 -1 0)
(-8.573896e-06 -1 2.638729e-05)
(-0.0001091568 -1 0.0001784927)
(-0.0001306869 -1 0.000163428)
(-0.0001501484 -1 0.0001457687)
(-0.0001672311 -1 0.000125798)
(-0.0001816547 -1 0.0001038334)
(-0.0001689516 -1 6.689283e-05)
(0 -1 0)
(0 -1 0)
(0 -1 0)
(0 -1 0)
(0 -1 0)
(0 -1 0)
(0 -1 0)
(0 -1 0)
(0 -1 0)
(0 -1 0)
(0 -1 0)
(0 -1 0)
(0 -1 0)
(0 -1 0)
(0 -1 0)
(0 -1 0)
(0 -1 0)
(0 -1 0)
(0 -1 0)
(-2.022486e-05 -1 -1.899255e-05)
(-0.000115035 -1 -0.0001747774)
(-7.73679e-05 -1 -0.0001644159)
(0 -1 0)
(0 -1 0)
(0 -1 0)
(-0 -1 0)
(0 -1 0)
(0 -1 0)
(0 -1 0)
(0 -1 0)
(0 -1 0)
(0 -1 0)
(0 -1 0)
(0 -1 0)
(0 -1 0)
(0 -1 0)
(0 -1 0)
(0 -1 0)
(0 -1 0)
(0 -1 0)
(0 -1 0)
(0 -1 0)
)

// normal volume types

56
(
0
0
0
0
0
0
0
0
0
0
0
0
0
0
0
0
0
0
0
0
0
0
0
0
0
0
0
0
0
0
0
0
0
0
0
0
0
0
0
0
0
0
0
0
0
0
0
0
0
0
0
0
0
0
0
0
)

// normalDirections

106
(
1(1)
1(1)
1(1)
1(1)
1(1)
1(1)
1(1)
1(1)
1(1)
1(1)
1(1)
1(1)
1(1)
1(1)
1(1)
1(1)
1(1)
1(1)
1(1)
1(1)
1(1)
1(1)
1(1)
1(1)
1(1)
1(1)
1(1)
1(1)
1(1)
1(1)
1(1)
1(1)
1(1)
1(1)
1(1)
1(1)
1(1)
1(1)
1(1)
1(1)
1(1)
1(1)
1(1)
1(1)
1(1)
1(1)
1(1)
1(1)
1(1)
1(1)
1(1)
1(1)
1(1)
1(1)
1(1)
1(1)
1(1)
1(1)
1(1)
1(1)
1(1)
1(1)
1(1)
1(1)
1(1)
1(1)
1(1)
1(1)
1(1)
1(1)
1(1)
1(1)
1(1)
1(1)
1(1)
1(1)
1(1)
1(1)
1(1)
1(1)
1(1)
1(1)
1(1)
1(1)
1(1)
1(1)
1(1)
1(1)
1(1)
1(1)
1(1)
1(1)
1(1)
1(1)
1(1)
1(1)
1(1)
1(1)
1(1)
1(1)
1(1)
1(1)
1(1)
1(1)
1(1)
1(1)
)

// edgeNormals

106
(
1(0)
1(1)
1(1)
1(2)
1(2)
1(3)
1(3)
1(4)
1(4)
1(5)
1(5)
1(6)
1(6)
1(7)
1(7)
1(8)
1(8)
1(9)
1(9)
1(10)
1(10)
1(11)
1(11)
1(12)
1(12)
1(13)
1(13)
1(14)
1(15)
1(15)
1(16)
1(16)
1(17)
1(17)
1(18)
1(19)
1(19)
1(20)
1(20)
1(21)
1(21)
1(22)
1(23)
1(23)
1(24)
1(24)
1(25)
1(25)
1(26)
1(27)
1(27)
1(28)
1(28)
1(29)
1(29)
1(30)
1(30)
1(31)
1(31)
1(32)
1(32)
1(33)
1(33)
1(34)
1(34)
1(35)
1(35)
1(36)
1(36)
1(37)
1(37)
1(38)
1(38)
1(39)
1(39)
1(40)
1(40)
1(41)
1(41)
1(42)
1(43)
1(43)
1(44)
1(44)
1(45)
1(45)
1(46)
1(46)
1(47)
1(47)
1(48)
1(48)
1(49)
1(49)
1(50)
1(50)
1(51)
1(51)
1(52)
1(52)
1(53)
1(53)
1(54)
1(54)
1(55)
1(55)
)

// featurePointNormals
0()
// featurePointEdges
0()
// regionEdges

106
(
0
1
2
3
4
5
6
7
8
9
10
11
12
13
14
15
16
17
18
19
20
21
22
23
24
25
26
27
28
29
30
31
32
33
34
35
36
37
38
39
40
41
42
43
44
45
46
47
48
49
50
51
52
53
54
55
56
57
58
59
60
61
62
63
64
65
66
67
68
69
70
71
72
73
74
75
76
77
78
79
80
81
82
83
84
85
86
87
88
89
90
91
92
93
94
95
96
97
98
99
100
101
102
103
104
105
)



// ************************************************************************* //
