/*--------------------------------*- C++ -*----------------------------------*\
  =========                 |
  \\      /  F ield         | OpenFOAM: The Open Source CFD Toolbox
   \\    /   O peration     | Website:  https://openfoam.org
    \\  /    A nd           | Version:  6
     \\/     M anipulation  |
\*---------------------------------------------------------------------------*/
FoamFile
{
    version     2.0;
    format      ascii;
    class       extendedFeatureEdgeMesh;
    location    "constant/extendedFeatureEdgeMesh";
    object      motor.extendedFeatureEdgeMesh;
}
// * * * * * * * * * * * * * * * * * * * * * * * * * * * * * * * * * * * * * //

// points

52
(
(0.460121 -1.646846 -0.149503)
(-0.331184 -1.646846 -0.352674)
(-0.474611 -1.646846 -0.094406)
(0.447074 -1.646846 -0.185184)
(-0.447074 -1.646846 -0.185184)
(0.460121 -1.646846 0.149502)
(0.482845 -1.646846 -0.030378)
(0.482845 -1.646846 -0.010805)
(-0.482845 -1.646846 0.010806)
(0.447074 -1.646846 0.185184)
(0.482958 -1.646846 -0.008629)
(-0.482958 -1.646846 0.008629)
(0.402356 -1.646846 -0.268846)
(0.342175 -1.646846 -0.342175)
(0.268846 -1.646846 -0.402356)
(-0.402356 -1.646846 -0.268845)
(0.185184 -1.646846 -0.447074)
(-0.342176 -1.646846 -0.342175)
(0.094406 -1.646846 -0.474611)
(-0.268846 -1.646846 -0.402356)
(-0 -1.646846 -0.483909)
(-0.185184 -1.646846 -0.447074)
(-0.094406 -1.646846 -0.474611)
(0.342175 -1.646846 0.342175)
(0.402356 -1.646846 0.268846)
(0.268846 -1.646846 0.402356)
(0.185184 -1.646846 0.447074)
(-0.474611 -1.646846 0.094407)
(0.094406 -1.646846 0.474611)
(-0.447074 -1.646846 0.185185)
(0 -1.646846 0.483909)
(-0.402355 -1.646846 0.268846)
(-0.094405 -1.646846 0.474611)
(-0.342175 -1.646846 0.342176)
(-0.185183 -1.646846 0.447074)
(-0.268845 -1.646846 0.402356)
(0.482981 -1.646846 -0.005533)
(0.482902 -1.646846 -0.001594)
(-0.482981 -1.646846 0.005533)
(-0.482902 -1.646846 0.001595)
(0.474611 -1.646846 -0.094406)
(-0.460121 -1.646846 -0.149502)
(-0.481541 -1.646846 -0.040702)
(0.481541 -1.646846 0.040702)
(0.474611 -1.646846 0.094406)
(0.120316 -1.646846 0.4686)
(0.482827 -1.646846 -0.004236)
(0.48278 -1.646846 0.002426)
(0.482702 -1.646846 0.009017)
(-0.482827 -1.646846 0.004236)
(-0.48278 -1.646846 -0.002426)
(-0.482702 -1.646846 -0.009016)
)

// edges

64
(
(4 2)
(12 13)
(13 14)
(15 4)
(14 16)
(17 15)
(16 18)
(19 17)
(18 20)
(21 19)
(20 22)
(22 21)
(3 12)
(23 24)
(25 23)
(26 25)
(8 27)
(28 26)
(27 29)
(30 28)
(29 31)
(32 30)
(31 33)
(34 32)
(33 35)
(35 34)
(24 9)
(10 36)
(36 37)
(11 38)
(38 39)
(40 6)
(6 0)
(41 42)
(42 2)
(41 2)
(40 0)
(3 0)
(1 2)
(1 4)
(0 1)
(3 1)
(3 4)
(5 43)
(43 44)
(5 44)
(45 5)
(5 9)
(45 9)
(51 39)
(48 37)
(46 7)
(47 46)
(48 47)
(49 8)
(50 49)
(51 50)
(6 7)
(7 6)
2{7}
(8 9)
2{8}
(7 10)
(8 11)
)

// concaveStart mixedStart nonFeatureStart
6 6 10
// internalStart flatStart openStart multipleStart
51 57 57 57
// normals

99
(
(0 0 0)
(-0 -1 0)
(0.06872297 -0.9976358 0)
(0 0 0)
(-0 -1 0)
(0 1 0)
(0 0 0)
(0 0 0)
(0.1536837 -0.9880879 -0.007979446)
(0 1 -0)
(-0.1536835 -0.9880879 0.00797577)
(0 1 0)
(-0 1 -0)
(-0.06574781 -0.9976369 -0.01994425)
(0 1 0)
(0.05309414 -0.9976384 -0.04357428)
(0.04358347 -0.9976374 -0.05310535)
(0 1 -0)
(-0.06059557 -0.9976368 -0.0323892)
(0 1 0)
(0.03237528 -0.9976388 -0.06057027)
(0 1 -0)
(-0.05310646 -0.9976373 -0.04358307)
(0 1 0)
(0.01993828 -0.9976384 -0.06572813)
(0 1 -0)
(-0.04357376 -0.9976384 -0.05309422)
(0 1 0)
(0.006734464 -0.9976368 -0.06837751)
(0 1 -0)
(-0.03238469 -0.9976374 -0.06058787)
(0 1 0)
(-0.006734298 -0.9976369 -0.06837582)
(0 1 -0)
(-0.01994004 -0.9976379 -0.06573396)
(0 1 0)
(0.06058787 -0.9976374 -0.03238469)
(0 1 0)
(0.05311782 -0.9976362 0.04359371)
(0.04357428 -0.9976384 0.05309414)
(0 1 0)
(0.03238469 -0.9976374 0.06058787)
(-0.06858164 -0.9976226 0.006754714)
(0 1 0)
(0.01994004 -0.9976379 0.06573396)
(0 1 0)
(-0.06573396 -0.9976379 0.01994004)
(0 1 0)
(0.006734094 -0.997637 0.06837375)
(0 1 0)
(-0.06058792 -0.9976373 0.03238584)
(-0 1 0)
(-0.006734529 -0.9976368 0.06837744)
(0 1 0)
(-0.05310716 -0.9976373 0.04358364)
(-0 1 0)
(-0.01994603 -0.9976365 0.0657537)
(0 1 0)
(-0.04358307 -0.9976373 0.05310646)
(-0 1 0)
(-0.032389 -0.9976368 0.06059591)
(0 1 0)
(0.06057027 -0.9976388 0.03237528)
(0.1844849 -0.9828344 -0.001370968)
(0 1 -0)
(0.1912968 -0.9815247 0.00383691)
(0 1 0)
(-0.1844849 -0.9828344 0.001370968)
(0 1 0)
(-0.1912968 -0.9815247 -0.003837883)
(0 1 0)
(0 1 0)
(0 -1 0)
(0 -1 0)
(-0 1 -0)
(0 -1 0)
(0 -1 0)
(-0 -1 0)
(0 1 0)
(0 -1 0)
(0 -1 0)
(0 -1 0)
(0 1 0)
(0 -1 0)
(0 -1 0)
(0 -1 0)
(0 1 0)
(0.1388447 -0.9903141 0.000380467)
(0.1792025 -0.9838114 0.001264216)
(0 1 0)
(0.1937533 -0.9810476 0.002293599)
(-0 1 -0)
(-0.1388448 -0.9903141 -0.0003804095)
(-0.1792025 -0.9838114 -0.001264216)
(0 1 0)
(-0.1937531 -0.9810476 -0.002293945)
(0 1 0)
(0 -1 0)
(0 -1 0)
)

// normal volume types

99
(
0
0
0
0
0
0
0
0
0
0
0
0
0
0
0
0
0
0
0
0
0
0
0
0
0
0
0
0
0
0
0
0
0
0
0
0
0
0
0
0
0
0
0
0
0
0
0
0
0
0
0
0
0
0
0
0
0
0
0
0
0
0
0
0
0
0
0
0
0
0
0
0
0
0
0
0
0
0
0
0
0
0
0
0
0
0
0
0
0
0
0
0
0
0
0
0
0
0
0
)

// normalDirections

64
(
2(1 -1)
2(1 -1)
2(1 -1)
2(1 -1)
2(1 -1)
2(1 -1)
2(1 -1)
2(1 -1)
2(1 -1)
2(1 -1)
2(1 -1)
2(1 -1)
2(1 -1)
2(1 -1)
2(1 -1)
2(1 -1)
2(1 -1)
2(1 -1)
2(1 -1)
2(1 -1)
2(1 -1)
2(1 -1)
2(1 -1)
2(1 -1)
2(1 -1)
2(1 -1)
2(1 -1)
2(1 -1)
2(1 -1)
2(1 -1)
2(1 -1)
2(1 -1)
2(1 -1)
2(1 -1)
2(1 -1)
2(1 -1)
2(1 -1)
2(1 -1)
2(1 -1)
2(1 -1)
2(1 -1)
2(1 -1)
2(1 -1)
2(1 -1)
2(1 -1)
2(1 -1)
2(1 -1)
2(1 -1)
2(1 -1)
2(1 -1)
2(1 -1)
2(1 -1)
2(1 -1)
2(1 -1)
2(1 -1)
2(1 -1)
2(1 -1)
3(-1 1 -1)
3(-1 -1 1)
3{-1}
6(1 -1 -1 -1 -1 -1)
3{-1}
6(1 -1 -1 -1 -1 -1)
6(1 -1 -1 -1 -1 -1)
)

// edgeNormals

64
(
2(12 13)
2(14 15)
2(14 16)
2(17 18)
2(19 20)
2(21 22)
2(23 24)
2(25 26)
2(27 28)
2(29 30)
2(31 32)
2(33 34)
2(35 36)
2(37 38)
2(37 39)
2(40 41)
2(5 42)
2(43 44)
2(45 46)
2(47 48)
2(49 50)
2(51 52)
2(53 54)
2(55 56)
2(57 58)
2(59 60)
2(61 62)
2(63 64)
2(65 66)
2(67 68)
2(69 70)
2(1 71)
2(72 71)
2(73 74)
2(75 74)
2(74 76)
2(71 77)
2(77 78)
2(76 12)
2(12 79)
2(80 78)
2(78 79)
2(79 17)
2(81 82)
2(83 82)
2(82 84)
2(85 86)
2(84 86)
2(86 4)
2(96 97)
2(91 98)
2(87 9)
2(88 89)
2(90 91)
2(92 11)
2(93 94)
2(95 96)
3(0 1 2)
3(0 1 2)
3(0 3 3)
6(4 5 6 6 6 6)
3(6 7 7)
6(8 3 3 3 3 9)
6(10 7 7 7 7 11)
)

// featurePointNormals

10
(
2(72 71)
2(76 12)
3(12 13 75)
3(35 36 77)
4(12 13 18 79)
2(81 82)
4(1 71 0 2)
7(87 9 0 1 2 3 8)
7(5 42 92 4 6 7 10)
4(61 62 84 6)
)

// featurePointEdges

10
(
4(32 36 37 40)
4(40 41 39 38)
4(34 35 38 0)
4(37 41 42 12)
4(39 42 3 0)
4(46 47 45 43)
4(57 58 31 32)
6(57 58 59 59 51 62)
6(60 61 61 16 54 63)
4(47 48 60 26)
)

// regionEdges
7(57 58 59 60 61 62 63)


// ************************************************************************* //
