/*--------------------------------*- C++ -*----------------------------------*\
  =========                 |
  \\      /  F ield         | OpenFOAM: The Open Source CFD Toolbox
   \\    /   O peration     | Website:  https://openfoam.org
    \\  /    A nd           | Version:  6
     \\/     M anipulation  |
\*---------------------------------------------------------------------------*/
FoamFile
{
    version     2.0;
    format      ascii;
    class       extendedFeatureEdgeMesh;
    location    "constant/extendedFeatureEdgeMesh";
    object      s_shaft.extendedFeatureEdgeMesh;
}
// * * * * * * * * * * * * * * * * * * * * * * * * * * * * * * * * * * * * * //

// points

100
(
(-0.010046 -0.380631 0.079369)
(0 -0.380631 0.08)
(0.010046 -0.380631 0.079369)
(0.019935 -0.380631 0.077487)
(0.029508 -0.380631 0.074382)
(0.038616 -0.380631 0.070105)
(0.047116 -0.380631 0.064721)
(0.054872 -0.380631 0.058317)
(0.061763 -0.380631 0.050994)
(0.06768 -0.380631 0.042866)
(0.072529 -0.380631 0.034062)
(0.076235 -0.380631 0.024721)
(0.078738 -0.380631 0.01499)
(0.08 -0.380631 0.005023)
(0.08 -0.380631 -0.005023)
(0.078738 -0.380631 -0.014991)
(0.076235 -0.380631 -0.024721)
(0.072529 -0.380631 -0.034062)
(0.06768 -0.380631 -0.042866)
(0.061763 -0.380631 -0.050994)
(0.054872 -0.380631 -0.058318)
(0.047116 -0.380631 -0.064721)
(0.038616 -0.380631 -0.070105)
(0.029508 -0.380631 -0.074382)
(0.019934 -0.380631 -0.077487)
(0.010046 -0.380631 -0.079369)
(-0 -0.380631 -0.08)
(-0.010047 -0.380631 -0.079369)
(-0.019935 -0.380631 -0.077487)
(-0.029508 -0.380631 -0.074382)
(-0.038617 -0.380631 -0.070104)
(-0.047116 -0.380631 -0.064721)
(-0.054872 -0.380631 -0.058317)
(-0.061763 -0.380631 -0.050994)
(-0.06768 -0.380631 -0.042866)
(-0.072529 -0.380631 -0.034062)
(-0.076235 -0.380631 -0.024721)
(-0.078738 -0.380631 -0.01499)
(-0.08 -0.380631 -0.005023)
(-0.08 -0.380631 0.005023)
(-0.078738 -0.380631 0.014991)
(-0.076235 -0.380631 0.024721)
(-0.072529 -0.380631 0.034062)
(-0.06768 -0.380631 0.042866)
(-0.061763 -0.380631 0.050994)
(-0.054872 -0.380631 0.058318)
(-0.047116 -0.380631 0.064721)
(-0.038616 -0.380631 0.070105)
(-0.029508 -0.380631 0.074382)
(-0.019934 -0.380631 0.077487)
(-0.010046 -0.607135 0.079369)
(0 -0.607135 0.08)
(-0.019934 -0.607135 0.077487)
(-0.029508 -0.607135 0.074382)
(-0.038616 -0.607135 0.070105)
(-0.047116 -0.607135 0.064721)
(-0.054872 -0.607135 0.058318)
(-0.061763 -0.607135 0.050994)
(-0.06768 -0.607135 0.042866)
(-0.072529 -0.607135 0.034062)
(-0.076235 -0.607135 0.024721)
(-0.078738 -0.607135 0.014991)
(-0.08 -0.607135 0.005023)
(-0.08 -0.607135 -0.005023)
(-0.078738 -0.607135 -0.01499)
(-0.076235 -0.607135 -0.024721)
(-0.072529 -0.607135 -0.034062)
(-0.06768 -0.607135 -0.042866)
(-0.061763 -0.607135 -0.050994)
(-0.054872 -0.607135 -0.058317)
(-0.047116 -0.607135 -0.064721)
(-0.038617 -0.607135 -0.070105)
(-0.029508 -0.607135 -0.074382)
(-0.019935 -0.607135 -0.077487)
(-0.010047 -0.607135 -0.079369)
(-0 -0.607135 -0.08)
(0.010046 -0.607135 -0.079369)
(0.019934 -0.607135 -0.077487)
(0.029508 -0.607135 -0.074382)
(0.038616 -0.607135 -0.070105)
(0.047116 -0.607135 -0.064721)
(0.054872 -0.607135 -0.058318)
(0.061763 -0.607135 -0.050994)
(0.06768 -0.607135 -0.042866)
(0.072529 -0.607135 -0.034062)
(0.076235 -0.607135 -0.024721)
(0.078738 -0.607135 -0.014991)
(0.08 -0.607135 -0.005023)
(0.08 -0.607135 0.005023)
(0.078738 -0.607135 0.01499)
(0.076235 -0.607135 0.024721)
(0.072529 -0.607135 0.034062)
(0.06768 -0.607135 0.042866)
(0.061763 -0.607135 0.050994)
(0.054872 -0.607135 0.058317)
(0.047116 -0.607135 0.064721)
(0.038616 -0.607135 0.070105)
(0.029508 -0.607135 0.074382)
(0.019935 -0.607135 0.077487)
(0.010046 -0.607135 0.079369)
)

// edges

100
(
(0 1)
(1 2)
(3 4)
(2 3)
(5 6)
(4 5)
(7 8)
(6 7)
(9 10)
(8 9)
(11 12)
(10 11)
(13 14)
(12 13)
(15 16)
(14 15)
(17 18)
(16 17)
(19 20)
(18 19)
(21 22)
(20 21)
(23 24)
(22 23)
(25 26)
(24 25)
(27 28)
(26 27)
(29 30)
(28 29)
(31 32)
(30 31)
(33 34)
(32 33)
(35 36)
(34 35)
(37 38)
(36 37)
(39 40)
(38 39)
(41 42)
(40 41)
(43 44)
(42 43)
(45 46)
(44 45)
(47 48)
(46 47)
(49 0)
(48 49)
(50 51)
(52 50)
(53 52)
(54 53)
(55 54)
(56 55)
(57 56)
(58 57)
(59 58)
(60 59)
(61 60)
(62 61)
(63 62)
(64 63)
(65 64)
(66 65)
(67 66)
(68 67)
(69 68)
(70 69)
(71 70)
(72 71)
(73 72)
(74 73)
(75 74)
(76 75)
(77 76)
(78 77)
(79 78)
(80 79)
(81 80)
(82 81)
(83 82)
(84 83)
(85 84)
(86 85)
(87 86)
(88 87)
(89 88)
(90 89)
(91 90)
(92 91)
(93 92)
(94 93)
(95 94)
(96 95)
(97 96)
(98 97)
(99 98)
(51 99)
)

// concaveStart mixedStart nonFeatureStart
0 0 0
// internalStart flatStart openStart multipleStart
100 100 100 100
// normals

150
(
(0 1 0)
(-0.06268725 0 0.9980332)
(0.06268725 0 0.9980332)
(0 1 0)
(0.3085265 0 0.9512157)
(0.1869571 0 0.9823681)
(0 1 0)
(0.5350993 0 0.8447892)
(0.4250549 0 0.9051676)
(0 1 0)
(0.7282611 0 0.6852998)
(0.6366968 0 0.7711142)
(0 1 0)
(0.8759299 0 0.4824383)
(0.808465 0 0.5885442)
(0 1 0)
(0.9684751 0 0.2491104)
(0.9295164 0 0.3687808)
(0 1 0)
(1 0 0)
(0.9920791 0 0.1256151)
(0 1 0)
(0.9684689 0 -0.2491344)
(0.9920806 0 -0.1256027)
(0 1 0)
(0.8759299 0 -0.4824383)
(0.9295164 0 -0.3687808)
(0 1 0)
(0.7283079 0 -0.68525)
(0.808465 0 -0.5885442)
(0 1 0)
(0.5350993 0 -0.8447892)
(0.6366376 0 -0.7711632)
(0 1 0)
(0.3084974 0 -0.9512252)
(0.4250549 0 -0.9051676)
(0 1 0)
(0.06268725 0 -0.9980332)
(0.1869753 0 -0.9823646)
(0 1 0)
(-0.1869753 0 -0.9823646)
(-0.06268103 0 -0.9980336)
(0 1 0)
(-0.425098 3.989682e-06 -0.9051473)
(-0.3085265 0 -0.9512157)
(0 1 0)
(-0.6366968 0 -0.7711142)
(-0.5350733 0 -0.8448056)
(0 1 0)
(-0.808465 0 -0.5885442)
(-0.7282611 0 -0.6852998)
(0 1 0)
(-0.9295164 0 -0.3687808)
(-0.8759299 0 -0.4824383)
(0 1 0)
(-0.9920791 0 -0.1256151)
(-0.9684751 0 -0.2491104)
(0 1 0)
(-0.9920806 0 0.1256027)
(-1 0 0)
(0 1 0)
(-0.9295164 0 0.3687808)
(-0.9684689 0 0.2491344)
(0 1 0)
(-0.808465 0 0.5885442)
(-0.8759299 0 0.4824383)
(0 1 0)
(-0.6366376 0 0.7711632)
(-0.7283079 0 0.68525)
(0 1 0)
(-0.4250549 0 0.9051676)
(-0.5350993 0 0.8447892)
(0 1 0)
(-0.1869753 0 0.9823646)
(-0.3084974 0 0.9512252)
(-0.06268725 0 0.9980332)
(0 -1 0)
(-0.1869753 0 0.9823646)
(-0.3084974 0 0.9512252)
(0 -1 0)
(-0.4250549 0 0.9051676)
(-0.5350993 0 0.8447892)
(0 -1 0)
(-0.6366376 0 0.7711632)
(-0.7283079 0 0.68525)
(0 -1 0)
(-0.808465 0 0.5885442)
(-0.8759299 0 0.4824383)
(0 -1 0)
(-0.9295164 0 0.3687808)
(-0.9684689 0 0.2491344)
(0 -1 0)
(-0.9920806 0 0.1256027)
(-1 0 0)
(0 -1 0)
(-0.9920791 -0 -0.1256151)
(-0.9684751 -0 -0.2491104)
(0 -1 0)
(-0.9295164 -0 -0.3687808)
(-0.8759299 -0 -0.4824383)
(0 -1 0)
(-0.808465 -0 -0.5885442)
(-0.7282611 -0 -0.6852998)
(0 -1 0)
(-0.6366968 -0 -0.7711142)
(-0.5351442 3.723512e-06 -0.8447608)
(0 -1 0)
(-0.4250167 -0 -0.9051855)
(-0.3085265 -0 -0.9512157)
(0 -1 0)
(-0.1869753 -0 -0.9823646)
(-0.06268103 -0 -0.9980336)
(0 -1 0)
(0.06268725 0 -0.9980332)
(0.1869753 0 -0.9823646)
(0 -1 0)
(0.3084974 0 -0.9512252)
(0.4250549 0 -0.9051676)
(0 -1 0)
(0.5350993 0 -0.8447892)
(0.6366376 0 -0.7711632)
(0 -1 0)
(0.7283079 0 -0.68525)
(0.808465 0 -0.5885442)
(0 -1 0)
(0.8759299 0 -0.4824383)
(0.9295164 0 -0.3687808)
(0 -1 0)
(0.9684689 0 -0.2491344)
(0.9920806 0 -0.1256027)
(0 -1 0)
(1 0 0)
(0.9920791 0 0.1256151)
(0 -1 0)
(0.9684751 0 0.2491104)
(0.9295164 0 0.3687808)
(0 -1 0)
(0.8759299 0 0.4824383)
(0.808465 0 0.5885442)
(0 -1 0)
(0.7282611 0 0.6852998)
(0.6366968 0 0.7711142)
(0 -1 0)
(0.5350993 0 0.8447892)
(0.4250549 0 0.9051676)
(0 -1 0)
(0.3085265 0 0.9512157)
(0.1869571 0 0.9823681)
(0 -1 0)
(0.06268725 0 0.9980332)
)

// normal volume types

150
(
0
0
0
0
0
0
0
0
0
0
0
0
0
0
0
0
0
0
0
0
0
0
0
0
0
0
0
0
0
0
0
0
0
0
0
0
0
0
0
0
0
0
0
0
0
0
0
0
0
0
0
0
0
0
0
0
0
0
0
0
0
0
0
0
0
0
0
0
0
0
0
0
0
0
0
0
0
0
0
0
0
0
0
0
0
0
0
0
0
0
0
0
0
0
0
0
0
0
0
0
0
0
0
0
0
0
0
0
0
0
0
0
0
0
0
0
0
0
0
0
0
0
0
0
0
0
0
0
0
0
0
0
0
0
0
0
0
0
0
0
0
0
0
0
0
0
0
0
0
0
)

// normalDirections

100
(
2(1 -1)
2(1 -1)
2(1 -1)
2(1 -1)
2(1 -1)
2(1 -1)
2(1 -1)
2(1 -1)
2(1 -1)
2(1 -1)
2(1 -1)
2(1 -1)
2(1 -1)
2(1 -1)
2(1 -1)
2(1 -1)
2(1 -1)
2(1 -1)
2(1 -1)
2(1 -1)
2(1 -1)
2(1 -1)
2(1 -1)
2(1 -1)
2(1 -1)
2(1 -1)
2(1 -1)
2(1 -1)
2(1 -1)
2(1 -1)
2(1 -1)
2(1 -1)
2(1 -1)
2(1 -1)
2(1 -1)
2(1 -1)
2(1 -1)
2(1 -1)
2(1 -1)
2(1 -1)
2(1 -1)
2(1 -1)
2(1 -1)
2(1 -1)
2(1 -1)
2(1 -1)
2(1 -1)
2(1 -1)
2(1 -1)
2(1 -1)
2(1 -1)
2(1 -1)
2(1 -1)
2(1 -1)
2(1 -1)
2(1 -1)
2(1 -1)
2(1 -1)
2(1 -1)
2(1 -1)
2(1 -1)
2(1 -1)
2(1 -1)
2(1 -1)
2(1 -1)
2(1 -1)
2(1 -1)
2(1 -1)
2(1 -1)
2(1 -1)
2(1 -1)
2(1 -1)
2(1 -1)
2(1 -1)
2(1 -1)
2(1 -1)
2(1 -1)
2(1 -1)
2(1 -1)
2(1 -1)
2(1 -1)
2(1 -1)
2(1 -1)
2(1 -1)
2(1 -1)
2(1 -1)
2(1 -1)
2(1 -1)
2(1 -1)
2(1 -1)
2(1 -1)
2(1 -1)
2(1 -1)
2(1 -1)
2(1 -1)
2(1 -1)
2(1 -1)
2(1 -1)
2(1 -1)
2(1 -1)
)

// edgeNormals

100
(
2(0 1)
2(0 2)
2(3 4)
2(3 5)
2(6 7)
2(6 8)
2(9 10)
2(9 11)
2(12 13)
2(12 14)
2(15 16)
2(15 17)
2(18 19)
2(18 20)
2(21 22)
2(21 23)
2(24 25)
2(24 26)
2(27 28)
2(27 29)
2(30 31)
2(30 32)
2(33 34)
2(33 35)
2(36 37)
2(36 38)
2(39 40)
2(39 41)
2(42 43)
2(42 44)
2(45 46)
2(45 47)
2(48 49)
2(48 50)
2(51 52)
2(51 53)
2(54 55)
2(54 56)
2(57 58)
2(57 59)
2(60 61)
2(60 62)
2(63 64)
2(63 65)
2(66 67)
2(66 68)
2(69 70)
2(69 71)
2(72 73)
2(72 74)
2(75 76)
2(77 76)
2(78 79)
2(80 79)
2(81 82)
2(83 82)
2(84 85)
2(86 85)
2(87 88)
2(89 88)
2(90 91)
2(92 91)
2(93 94)
2(95 94)
2(96 97)
2(98 97)
2(99 100)
2(101 100)
2(102 103)
2(104 103)
2(105 106)
2(107 106)
2(108 109)
2(110 109)
2(111 112)
2(113 112)
2(114 115)
2(116 115)
2(117 118)
2(119 118)
2(120 121)
2(122 121)
2(123 124)
2(125 124)
2(126 127)
2(128 127)
2(129 130)
2(131 130)
2(132 133)
2(134 133)
2(135 136)
2(137 136)
2(138 139)
2(140 139)
2(141 142)
2(143 142)
2(144 145)
2(146 145)
2(147 148)
2(149 148)
)

// featurePointNormals
0()
// featurePointEdges
0()
// regionEdges
0()


// ************************************************************************* //
